                                                                
version 3
run General-0-20260423-11:10:05-4927
attr configname General
attr datetime 20260423-11:10:05
attr datetimef 20260423-111005
attr experiment General
attr inifile omnetpp.ini
attr iterationvars ""
attr iterationvarsd ""
attr iterationvarsf ""
attr measurement ""
attr network FourLAN
attr processid 4927
attr repetition 0
attr replication #0
attr resultdir results
attr runnumber 0
attr seedset 0
config network FourLAN
config sim-time-limit 40s
config *.configurator.typename Ipv4NetworkConfigurator
config *.configurator.assignAddresses true
config *.configurator.addStaticRoutes true
config *.configurator.addDefaultRoutes true
config *.host*.arp.typename GlobalArp
config *.server.arp.typename GlobalArp
config *.router*.arp.typename GlobalArp
config *.server.numApps 1
config *.server.app[0].typename TcpGenericServerApp
config *.server.app[0].localAddress "\"\""
config *.server.app[0].localPort 80
config *.server.app[0].replyDelay 0s
config *.host1.numApps 2
config *.host1.app[0].typename PingApp
config *.host1.app[0].destAddr "\"host3\""
config *.host1.app[0].startTime 2s
config *.host1.app[0].sendInterval 0.5s
config *.host1.app[0].count 10
config *.host1.app[1].typename TcpBasicClientApp
config *.host1.app[1].connectAddress "\"server\""
config *.host1.app[1].connectPort 80
config *.host1.app[1].startTime 3s
config *.host1.app[1].numRequestsPerSession 5
config *.host1.app[1].requestLength 200B
config *.host1.app[1].replyLength 1024B
config *.host1.app[1].thinkTime 0.5s
config *.host1.app[1].idleInterval 0.5s
config *.host2.numApps 2
config *.host2.app[0].typename PingApp
config *.host2.app[0].destAddr "\"host4\""
config *.host2.app[0].startTime 2s
config *.host2.app[0].sendInterval 1s
config *.host2.app[0].count 20
config *.host2.app[1].typename TcpBasicClientApp
config *.host2.app[1].connectAddress "\"server\""
config *.host2.app[1].connectPort 80
config *.host2.app[1].startTime 3.5s
config *.host2.app[1].numRequestsPerSession 10
config *.host2.app[1].requestLength 200B
config *.host2.app[1].replyLength 1024B
config *.host2.app[1].thinkTime 0.5s
config *.host2.app[1].idleInterval 0.5s
config *.host3.numApps 2
config *.host3.app[0].typename PingApp
config *.host3.app[0].destAddr "\"host1\""
config *.host3.app[0].startTime 2s
config *.host3.app[0].sendInterval 1s
config *.host3.app[0].count 20
config *.host3.app[1].typename TcpBasicClientApp
config *.host3.app[1].connectAddress "\"server\""
config *.host3.app[1].connectPort 80
config *.host3.app[1].startTime 3s
config *.host3.app[1].numRequestsPerSession 10
config *.host3.app[1].requestLength 200B
config *.host3.app[1].replyLength 2048B
config *.host3.app[1].thinkTime 0.5s
config *.host3.app[1].idleInterval 0.5s
config *.host4.numApps 2
config *.host4.app[0].typename PingApp
config *.host4.app[0].destAddr "\"host2\""
config *.host4.app[0].startTime 2s
config *.host4.app[0].sendInterval 1s
config *.host4.app[0].count 20
config *.host4.app[1].typename TcpBasicClientApp
config *.host4.app[1].connectAddress "\"server\""
config *.host4.app[1].connectPort 80
config *.host4.app[1].startTime 3.5s
config *.host4.app[1].numRequestsPerSession 10
config *.host4.app[1].requestLength 200B
config *.host4.app[1].replyLength 1024B
config *.host4.app[1].thinkTime 0.5s
config *.host4.app[1].idleInterval 0.5s
config *.visualizer.*.displayPacketName true
config *.visualizer.*.displayPackets true
config *.visualizer.*.packetFilter "\"*\""
config *.visualizer.*.fadeOutMode "\"animationTime\""
config *.visualizer.*.fadeOutTime 2s

vector 0 FourLAN.host1.ethernet encapPk:vector(packetBytes) ETV
attr interpolationmode none
attr recordingmode vector(packetBytes)
attr source encapPk
attr title "packets encapsulated, packetBytes"
vector 1 FourLAN.host1.ethernet decapPk:vector(packetBytes) ETV
attr interpolationmode none
attr recordingmode vector(packetBytes)
attr source decapPk
attr title "packets decapsulated, packetBytes"
vector 2 FourLAN.host1.ethernet pauseSent:vector ETV
attr recordingmode vector
attr title "pause sent"
vector 3 FourLAN.host1.lo[0].lo rcvdPkFromHl:vector(packetBytes) ETV
attr interpolationmode none
attr recordingmode vector(packetBytes)
attr source packetReceivedFromUpper
attr title "packets received from higher layer, packetBytes"
vector 4 FourLAN.host1.lo[0].lo passedUpPk:vector(packetBytes) ETV
attr interpolationmode none
attr recordingmode vector(packetBytes)
attr source packetSentToUpper
attr title "packets passed to higher layer, packetBytes"
vector 5 FourLAN.host1.lo[0] packetDropInterfaceDown:vector(packetBytes) ETV
attr interpolationmode none
attr recordingmode vector(packetBytes)
attr source packetDropReasonIsInterfaceDown(packetDropped)
attr title "packet drops: interface down, packetBytes"
vector 6 FourLAN.host1.lo[0] packetDropNoCarrier:vector(packetBytes) ETV
attr interpolationmode none
attr recordingmode vector(packetBytes)
attr source packetDropReasonIsNoCarrier(packetDropped)
attr title "packet drops: no carrier, packetBytes"
vector 7 FourLAN.host1.eth[0].queue queueLength:vector ETV
attr autoWarmupFilter false
attr interpolationmode sample-hold
attr recordingmode vector
attr source "warmup(atomic(constant0(packetPushEnded) + count(packetPushStarted) - count(packetPulled) - count(packetRemoved) - count(packetDropped)))"
attr title "queue length"
attr unit pk
vector 8 FourLAN.host1.eth[0].queue queueBitLength:vector ETV
attr autoWarmupFilter false
attr interpolationmode sample-hold
attr recordingmode vector
attr source "warmup(atomic(constant0(packetPushEnded) + sum(packetLength(packetPushStarted)) - sum(packetLength(packetPulled)) - sum(packetLength(packetRemoved)) - sum(packetLength(packetDropped))))"
attr title "queue bit length"
attr unit b
vector 9 FourLAN.host1.eth[0].queue queueingTime:vector ETV
attr interpolationmode none
attr recordingmode vector
attr source queueingTime(packetPulled)
attr title "queueing times"
attr unit s
vector 10 FourLAN.host1.eth[0].queue incomingPacketLengths:vector ETV
attr interpolationmode none
attr recordingmode vector
attr source packetLength(packetPushStarted)
attr title "incoming packet lengths"
attr unit b
vector 11 FourLAN.host1.eth[0].queue incomingDataRate:vector ETV
attr interpolationmode linear
attr recordingmode vector
attr source throughput(packetPushStarted)
attr title "incoming datarate"
attr unit bps
vector 12 FourLAN.host1.eth[0].queue outgoingPacketLengths:vector ETV
attr interpolationmode none
attr recordingmode vector
attr source packetLength(packetPulled)
attr title "outgoing packet lengths"
attr unit b
vector 13 FourLAN.host1.eth[0].queue outgoingDataRate:vector ETV
attr interpolationmode linear
attr recordingmode vector
attr source throughput(packetPulled)
attr title "outgoing datarate"
attr unit bps
vector 14 FourLAN.host1.eth[0].queue droppedPacketLengthsQueueOverflow:vector ETV
attr interpolationmode none
attr recordingmode vector
attr source packetLength(packetDropReasonIsQueueOverflow(packetDropped))
attr title "dropped packet lengths: queue overflow"
attr unit b
vector 15 FourLAN.host1.eth[0].queue flowQueueingTime:vector ETV
attr interpolationmode none
attr recordingmode vector
attr source queueingTime(demuxFlow(packetPulled))
attr title "flow queueing times"
attr unit s
vector 16 FourLAN.host1.eth[0].queue flowIncomingDataRate:vector ETV
attr interpolationmode linear
attr recordingmode vector
attr source throughput(flowPacketLength(demuxFlow(packetPushStarted)))
attr title "flow specific incoming data rate"
attr unit bps
vector 17 FourLAN.host1.eth[0].queue flowOutgoingDataRate:vector ETV
attr interpolationmode linear
attr recordingmode vector
attr source throughput(flowPacketLength(demuxFlow(packetPulled)))
attr title "flow specific outgoing data rate"
attr unit bps
vector 18 FourLAN.host1.eth[0].mac transmitting:vector ETV
attr interpolationmode sample-hold
attr recordingmode vector
attr source "count(transmissionStarted) - count(transmissionEnded)"
attr title "transmitting state"
attr type int
vector 19 FourLAN.host1.eth[0].mac throughput:vector ETV
attr interpolationmode linear
attr recordingmode vector
attr source throughput(transmissionEnded)
attr title throughput
attr unit bps
vector 20 FourLAN.host1.eth[0].mac utilization:vector ETV
attr interpolationmode linear
attr recordingmode vector
attr source "100 * utilization(count(transmissionStarted) - count(transmissionEnded))"
attr title utilization
attr unit %
vector 21 FourLAN.host1.eth[0].mac txPk:vector(packetBytes) ETV
attr interpolationmode none
attr recordingmode vector(packetBytes)
attr source packetSentToLower
attr title "packets transmitted, packetBytes"
vector 22 FourLAN.host1.eth[0].mac rxPkOk:vector(packetBytes) ETV
attr interpolationmode none
attr recordingmode vector(packetBytes)
attr source rxPkOk
attr title "packets received OK, packetBytes"
vector 23 FourLAN.host1.eth[0].mac passedUpPk:vector(packetBytes) ETV
attr interpolationmode none
attr recordingmode vector(packetBytes)
attr source packetSentToUpper
attr title "packets passed to higher layer, packetBytes"
vector 24 FourLAN.host1.eth[0].mac txPausePkUnits:vector ETV
attr interpolationmode none
attr recordingmode vector
attr title "pause units sent"
vector 25 FourLAN.host1.eth[0].mac rxPausePkUnits:vector ETV
attr interpolationmode none
attr recordingmode vector
attr title "pause units received"
vector 26 FourLAN.host1.eth[0].mac packetReceivedFromUpper:vector(packetBytes) ETV
attr interpolationmode none
attr recordingmode vector(packetBytes)
attr source packetReceivedFromUpper
attr title "packet bytes from higher layer, packetBytes"
vector 27 FourLAN.host1.eth[0].mac packetDropIncorrectlyReceived:vector(packetBytes) ETV
attr interpolationmode none
attr recordingmode vector(packetBytes)
attr source packetDropReasonIsIncorrectlyReceived(packetDropped)
attr title "packet drop: incorrectly received, packetBytes"
vector 28 FourLAN.host1.eth[0].mac packetDropInterfaceDown:vector(packetBytes) ETV
attr interpolationmode none
attr recordingmode vector(packetBytes)
attr source packetDropReasonIsInterfaceDown(packetDropped)
attr title "packet drop: interface down, packetBytes"
vector 29 FourLAN.host1.eth[0].mac packetDropNotAddressedToUs:vector(packetBytes) ETV
attr interpolationmode none
attr recordingmode vector(packetBytes)
attr source packetDropReasonIsNotAddressedToUs(packetDropped)
attr title "packet drop: not addressed to us, packetBytes"
vector 30 FourLAN.host1.eth[0] packetDropInterfaceDown:vector(packetBytes) ETV
attr interpolationmode none
attr recordingmode vector(packetBytes)
attr source packetDropReasonIsInterfaceDown(packetDropped)
attr title "packet drops: interface down, packetBytes"
vector 31 FourLAN.host1.eth[0] packetDropNoCarrier:vector(packetBytes) ETV
attr interpolationmode none
attr recordingmode vector(packetBytes)
attr source packetDropReasonIsNoCarrier(packetDropped)
attr title "packet drops: no carrier, packetBytes"
vector 32 FourLAN.host1.ipv4.ip packetDropAddressResolutionFailed:vector(packetBytes) ETV
attr interpolationmode none
attr recordingmode vector(packetBytes)
attr source packetDropReasonIsAddressResolutionFailed(packetDropped)
attr title "packet drop: address resolution failed, packetBytes"
vector 33 FourLAN.host1.ipv4.ip packetDropHopLimitReached:vector(packetBytes) ETV
attr interpolationmode none
attr recordingmode vector(packetBytes)
attr source packetDropReasonIsHopLimitReached(packetDropped)
attr title "packet drop: hop limit reached, packetBytes"
vector 34 FourLAN.host1.ipv4.ip packetDropForwardingDisabled:vector(packetBytes) ETV
attr interpolationmode none
attr recordingmode vector(packetBytes)
attr source packetDropReasonIsForwardingDisabled(packetDropped)
attr title "packet drop: forwarding disabled, packetBytes"
vector 35 FourLAN.host1.ipv4.ip packetDropLifetimeExpired:vector(packetBytes) ETV
attr interpolationmode none
attr recordingmode vector(packetBytes)
attr source packetDropReasonIsLifetimeExpired(packetDropped)
attr title "packet drop: lifetime expired, packetBytes"
vector 36 FourLAN.host1.ipv4.ip packetDropNoInterfaceFound:vector(packetBytes) ETV
attr interpolationmode none
attr recordingmode vector(packetBytes)
attr source packetDropReasonIsNoInterfaceFound(packetDropped)
attr title "packet drop: no interface found, packetBytes"
vector 37 FourLAN.host1.ipv4.ip packetDropNoRouteFound:vector(packetBytes) ETV
attr interpolationmode none
attr recordingmode vector(packetBytes)
attr source packetDropReasonIsNoRouteFound(packetDropped)
attr title "packet drop: no route found, packetBytes"
vector 38 FourLAN.host1.ipv4.ip packetDropUndefined:vector(packetBytes) ETV
attr interpolationmode none
attr recordingmode vector(packetBytes)
attr source packetDropReasonIsUndefined(packetDropped)
attr title "packet drop: undefined, packetBytes"
vector 39 FourLAN.host1.ipv4.arp arpRequestSent:vector(packetBytes) ETV
attr recordingmode vector(packetBytes)
attr source arpRequestSent
attr title "ARP request sent, packetBytes"
vector 40 FourLAN.host1.ipv4.arp arpReplySent:vector(packetBytes) ETV
attr recordingmode vector(packetBytes)
attr source arpReplySent
attr title "ARP replies sent, packetBytes"
vector 41 FourLAN.host1.udp packetSent:vector(packetBytes) ETV
attr interpolationmode none
attr recordingmode vector(packetBytes)
attr source packetSent
attr title "packets sent, packetBytes"
vector 42 FourLAN.host1.udp outgoingDataRate:vector ETV
attr interpolationmode linear
attr recordingmode vector
attr source throughput(packetSent)
attr title "outgoing datarate"
attr unit bps
vector 43 FourLAN.host1.udp packetReceived:vector(packetBytes) ETV
attr interpolationmode none
attr recordingmode vector(packetBytes)
attr source packetReceived
attr title "packets received, packetBytes"
vector 44 FourLAN.host1.udp passedUpPk:vector(count) ETV
attr interpolationmode none
attr recordingmode vector(count)
attr source packetSentToUpper
attr title "packets passed up, count"
vector 45 FourLAN.host1.udp droppedPkWrongPort:vector(count) ETV
attr interpolationmode none
attr recordingmode vector(count)
attr source packetDropReasonIsNoPortFound(packetDropped)
attr title "packets dropped (wrong port), count"
vector 46 FourLAN.host1.udp droppedPkBadChecksum:vector(count) ETV
attr interpolationmode none
attr recordingmode vector(count)
attr source packetDropReasonIsIncorrectlyReceived(packetDropped)
attr title "packets dropped (checksum error), count"
vector 47 FourLAN.host1.app[0] rtt:vector ETV
attr interpolationmode none
attr recordingmode vector
attr title "ping round-trip time"
attr unit s
vector 48 FourLAN.host1.app[0] numLost:vector ETV
attr interpolationmode none
attr recordingmode vector
attr title "pings lost"
vector 49 FourLAN.host1.app[0] numOutOfOrderArrivals:vector ETV
attr interpolationmode none
attr recordingmode vector
attr title "ping out-of-order arrivals"
vector 50 FourLAN.host1.app[0] pingTxSeq:vector ETV
attr interpolationmode none
attr recordingmode vector
attr title "ping tx seq"
vector 51 FourLAN.host1.app[0] pingRxSeq:vector ETV
attr interpolationmode none
attr recordingmode vector
attr title "ping rx seq"
vector 52 FourLAN.host1.app[1] packetReceived:vector(packetBytes) ETV
attr interpolationmode none
attr recordingmode vector(packetBytes)
attr source packetReceived
attr title "packets received, packetBytes"
vector 53 FourLAN.host1.app[1] packetSent:vector(packetBytes) ETV
attr interpolationmode none
attr recordingmode vector(packetBytes)
attr source packetSent
attr title "packets sent, packetBytes"
vector 54 FourLAN.host1.app[1] endToEndDelay:vector ETV
attr interpolationmode none
attr recordingmode vector
attr source dataAge(packetReceived)
attr title "end-to-end delay"
attr unit s
vector 55 FourLAN.host1.app[1] numActiveSessions:vector ETV
attr autoWarmupFilter false
attr interpolationmode sample-hold
attr recordingmode vector
attr source warmup(sum(connect))
attr title "number of active sessions"
vector 56 FourLAN.host1.app[1] throughput:vector ETV
attr recordingmode vector
attr source throughput(packetReceived)
attr title "throughput of received data"
attr unit bps
vector 57 FourLAN.host2.ethernet encapPk:vector(packetBytes) ETV
attr interpolationmode none
attr recordingmode vector(packetBytes)
attr source encapPk
attr title "packets encapsulated, packetBytes"
vector 58 FourLAN.host2.ethernet decapPk:vector(packetBytes) ETV
attr interpolationmode none
attr recordingmode vector(packetBytes)
attr source decapPk
attr title "packets decapsulated, packetBytes"
vector 59 FourLAN.host2.ethernet pauseSent:vector ETV
attr recordingmode vector
attr title "pause sent"
vector 60 FourLAN.host2.lo[0].lo rcvdPkFromHl:vector(packetBytes) ETV
attr interpolationmode none
attr recordingmode vector(packetBytes)
attr source packetReceivedFromUpper
attr title "packets received from higher layer, packetBytes"
vector 61 FourLAN.host2.lo[0].lo passedUpPk:vector(packetBytes) ETV
attr interpolationmode none
attr recordingmode vector(packetBytes)
attr source packetSentToUpper
attr title "packets passed to higher layer, packetBytes"
vector 62 FourLAN.host2.lo[0] packetDropInterfaceDown:vector(packetBytes) ETV
attr interpolationmode none
attr recordingmode vector(packetBytes)
attr source packetDropReasonIsInterfaceDown(packetDropped)
attr title "packet drops: interface down, packetBytes"
vector 63 FourLAN.host2.lo[0] packetDropNoCarrier:vector(packetBytes) ETV
attr interpolationmode none
attr recordingmode vector(packetBytes)
attr source packetDropReasonIsNoCarrier(packetDropped)
attr title "packet drops: no carrier, packetBytes"
vector 64 FourLAN.host2.eth[0].queue queueLength:vector ETV
attr autoWarmupFilter false
attr interpolationmode sample-hold
attr recordingmode vector
attr source "warmup(atomic(constant0(packetPushEnded) + count(packetPushStarted) - count(packetPulled) - count(packetRemoved) - count(packetDropped)))"
attr title "queue length"
attr unit pk
vector 65 FourLAN.host2.eth[0].queue queueBitLength:vector ETV
attr autoWarmupFilter false
attr interpolationmode sample-hold
attr recordingmode vector
attr source "warmup(atomic(constant0(packetPushEnded) + sum(packetLength(packetPushStarted)) - sum(packetLength(packetPulled)) - sum(packetLength(packetRemoved)) - sum(packetLength(packetDropped))))"
attr title "queue bit length"
attr unit b
vector 66 FourLAN.host2.eth[0].queue queueingTime:vector ETV
attr interpolationmode none
attr recordingmode vector
attr source queueingTime(packetPulled)
attr title "queueing times"
attr unit s
vector 67 FourLAN.host2.eth[0].queue incomingPacketLengths:vector ETV
attr interpolationmode none
attr recordingmode vector
attr source packetLength(packetPushStarted)
attr title "incoming packet lengths"
attr unit b
vector 68 FourLAN.host2.eth[0].queue incomingDataRate:vector ETV
attr interpolationmode linear
attr recordingmode vector
attr source throughput(packetPushStarted)
attr title "incoming datarate"
attr unit bps
vector 69 FourLAN.host2.eth[0].queue outgoingPacketLengths:vector ETV
attr interpolationmode none
attr recordingmode vector
attr source packetLength(packetPulled)
attr title "outgoing packet lengths"
attr unit b
vector 70 FourLAN.host2.eth[0].queue outgoingDataRate:vector ETV
attr interpolationmode linear
attr recordingmode vector
attr source throughput(packetPulled)
attr title "outgoing datarate"
attr unit bps
vector 71 FourLAN.host2.eth[0].queue droppedPacketLengthsQueueOverflow:vector ETV
attr interpolationmode none
attr recordingmode vector
attr source packetLength(packetDropReasonIsQueueOverflow(packetDropped))
attr title "dropped packet lengths: queue overflow"
attr unit b
vector 72 FourLAN.host2.eth[0].queue flowQueueingTime:vector ETV
attr interpolationmode none
attr recordingmode vector
attr source queueingTime(demuxFlow(packetPulled))
attr title "flow queueing times"
attr unit s
vector 73 FourLAN.host2.eth[0].queue flowIncomingDataRate:vector ETV
attr interpolationmode linear
attr recordingmode vector
attr source throughput(flowPacketLength(demuxFlow(packetPushStarted)))
attr title "flow specific incoming data rate"
attr unit bps
vector 74 FourLAN.host2.eth[0].queue flowOutgoingDataRate:vector ETV
attr interpolationmode linear
attr recordingmode vector
attr source throughput(flowPacketLength(demuxFlow(packetPulled)))
attr title "flow specific outgoing data rate"
attr unit bps
vector 75 FourLAN.host2.eth[0].mac transmitting:vector ETV
attr interpolationmode sample-hold
attr recordingmode vector
attr source "count(transmissionStarted) - count(transmissionEnded)"
attr title "transmitting state"
attr type int
vector 76 FourLAN.host2.eth[0].mac throughput:vector ETV
attr interpolationmode linear
attr recordingmode vector
attr source throughput(transmissionEnded)
attr title throughput
attr unit bps
vector 77 FourLAN.host2.eth[0].mac utilization:vector ETV
attr interpolationmode linear
attr recordingmode vector
attr source "100 * utilization(count(transmissionStarted) - count(transmissionEnded))"
attr title utilization
attr unit %
vector 78 FourLAN.host2.eth[0].mac txPk:vector(packetBytes) ETV
attr interpolationmode none
attr recordingmode vector(packetBytes)
attr source packetSentToLower
attr title "packets transmitted, packetBytes"
vector 79 FourLAN.host2.eth[0].mac rxPkOk:vector(packetBytes) ETV
attr interpolationmode none
attr recordingmode vector(packetBytes)
attr source rxPkOk
attr title "packets received OK, packetBytes"
vector 80 FourLAN.host2.eth[0].mac passedUpPk:vector(packetBytes) ETV
attr interpolationmode none
attr recordingmode vector(packetBytes)
attr source packetSentToUpper
attr title "packets passed to higher layer, packetBytes"
vector 81 FourLAN.host2.eth[0].mac txPausePkUnits:vector ETV
attr interpolationmode none
attr recordingmode vector
attr title "pause units sent"
vector 82 FourLAN.host2.eth[0].mac rxPausePkUnits:vector ETV
attr interpolationmode none
attr recordingmode vector
attr title "pause units received"
vector 83 FourLAN.host2.eth[0].mac packetReceivedFromUpper:vector(packetBytes) ETV
attr interpolationmode none
attr recordingmode vector(packetBytes)
attr source packetReceivedFromUpper
attr title "packet bytes from higher layer, packetBytes"
vector 84 FourLAN.host2.eth[0].mac packetDropIncorrectlyReceived:vector(packetBytes) ETV
attr interpolationmode none
attr recordingmode vector(packetBytes)
attr source packetDropReasonIsIncorrectlyReceived(packetDropped)
attr title "packet drop: incorrectly received, packetBytes"
vector 85 FourLAN.host2.eth[0].mac packetDropInterfaceDown:vector(packetBytes) ETV
attr interpolationmode none
attr recordingmode vector(packetBytes)
attr source packetDropReasonIsInterfaceDown(packetDropped)
attr title "packet drop: interface down, packetBytes"
vector 86 FourLAN.host2.eth[0].mac packetDropNotAddressedToUs:vector(packetBytes) ETV
attr interpolationmode none
attr recordingmode vector(packetBytes)
attr source packetDropReasonIsNotAddressedToUs(packetDropped)
attr title "packet drop: not addressed to us, packetBytes"
vector 87 FourLAN.host2.eth[0] packetDropInterfaceDown:vector(packetBytes) ETV
attr interpolationmode none
attr recordingmode vector(packetBytes)
attr source packetDropReasonIsInterfaceDown(packetDropped)
attr title "packet drops: interface down, packetBytes"
vector 88 FourLAN.host2.eth[0] packetDropNoCarrier:vector(packetBytes) ETV
attr interpolationmode none
attr recordingmode vector(packetBytes)
attr source packetDropReasonIsNoCarrier(packetDropped)
attr title "packet drops: no carrier, packetBytes"
vector 89 FourLAN.host2.ipv4.ip packetDropAddressResolutionFailed:vector(packetBytes) ETV
attr interpolationmode none
attr recordingmode vector(packetBytes)
attr source packetDropReasonIsAddressResolutionFailed(packetDropped)
attr title "packet drop: address resolution failed, packetBytes"
vector 90 FourLAN.host2.ipv4.ip packetDropHopLimitReached:vector(packetBytes) ETV
attr interpolationmode none
attr recordingmode vector(packetBytes)
attr source packetDropReasonIsHopLimitReached(packetDropped)
attr title "packet drop: hop limit reached, packetBytes"
vector 91 FourLAN.host2.ipv4.ip packetDropForwardingDisabled:vector(packetBytes) ETV
attr interpolationmode none
attr recordingmode vector(packetBytes)
attr source packetDropReasonIsForwardingDisabled(packetDropped)
attr title "packet drop: forwarding disabled, packetBytes"
vector 92 FourLAN.host2.ipv4.ip packetDropLifetimeExpired:vector(packetBytes) ETV
attr interpolationmode none
attr recordingmode vector(packetBytes)
attr source packetDropReasonIsLifetimeExpired(packetDropped)
attr title "packet drop: lifetime expired, packetBytes"
vector 93 FourLAN.host2.ipv4.ip packetDropNoInterfaceFound:vector(packetBytes) ETV
attr interpolationmode none
attr recordingmode vector(packetBytes)
attr source packetDropReasonIsNoInterfaceFound(packetDropped)
attr title "packet drop: no interface found, packetBytes"
vector 94 FourLAN.host2.ipv4.ip packetDropNoRouteFound:vector(packetBytes) ETV
attr interpolationmode none
attr recordingmode vector(packetBytes)
attr source packetDropReasonIsNoRouteFound(packetDropped)
attr title "packet drop: no route found, packetBytes"
vector 95 FourLAN.host2.ipv4.ip packetDropUndefined:vector(packetBytes) ETV
attr interpolationmode none
attr recordingmode vector(packetBytes)
attr source packetDropReasonIsUndefined(packetDropped)
attr title "packet drop: undefined, packetBytes"
vector 96 FourLAN.host2.ipv4.arp arpRequestSent:vector(packetBytes) ETV
attr recordingmode vector(packetBytes)
attr source arpRequestSent
attr title "ARP request sent, packetBytes"
vector 97 FourLAN.host2.ipv4.arp arpReplySent:vector(packetBytes) ETV
attr recordingmode vector(packetBytes)
attr source arpReplySent
attr title "ARP replies sent, packetBytes"
vector 98 FourLAN.host2.udp packetSent:vector(packetBytes) ETV
attr interpolationmode none
attr recordingmode vector(packetBytes)
attr source packetSent
attr title "packets sent, packetBytes"
vector 99 FourLAN.host2.udp outgoingDataRate:vector ETV
attr interpolationmode linear
attr recordingmode vector
attr source throughput(packetSent)
attr title "outgoing datarate"
attr unit bps
vector 100 FourLAN.host2.udp packetReceived:vector(packetBytes) ETV
attr interpolationmode none
attr recordingmode vector(packetBytes)
attr source packetReceived
attr title "packets received, packetBytes"
vector 101 FourLAN.host2.udp passedUpPk:vector(count) ETV
attr interpolationmode none
attr recordingmode vector(count)
attr source packetSentToUpper
attr title "packets passed up, count"
vector 102 FourLAN.host2.udp droppedPkWrongPort:vector(count) ETV
attr interpolationmode none
attr recordingmode vector(count)
attr source packetDropReasonIsNoPortFound(packetDropped)
attr title "packets dropped (wrong port), count"
vector 103 FourLAN.host2.udp droppedPkBadChecksum:vector(count) ETV
attr interpolationmode none
attr recordingmode vector(count)
attr source packetDropReasonIsIncorrectlyReceived(packetDropped)
attr title "packets dropped (checksum error), count"
vector 104 FourLAN.host2.app[0] rtt:vector ETV
attr interpolationmode none
attr recordingmode vector
attr title "ping round-trip time"
attr unit s
vector 105 FourLAN.host2.app[0] numLost:vector ETV
attr interpolationmode none
attr recordingmode vector
attr title "pings lost"
vector 106 FourLAN.host2.app[0] numOutOfOrderArrivals:vector ETV
attr interpolationmode none
attr recordingmode vector
attr title "ping out-of-order arrivals"
vector 107 FourLAN.host2.app[0] pingTxSeq:vector ETV
attr interpolationmode none
attr recordingmode vector
attr title "ping tx seq"
vector 108 FourLAN.host2.app[0] pingRxSeq:vector ETV
attr interpolationmode none
attr recordingmode vector
attr title "ping rx seq"
vector 109 FourLAN.host2.app[1] packetReceived:vector(packetBytes) ETV
attr interpolationmode none
attr recordingmode vector(packetBytes)
attr source packetReceived
attr title "packets received, packetBytes"
vector 110 FourLAN.host2.app[1] packetSent:vector(packetBytes) ETV
attr interpolationmode none
attr recordingmode vector(packetBytes)
attr source packetSent
attr title "packets sent, packetBytes"
vector 111 FourLAN.host2.app[1] endToEndDelay:vector ETV
attr interpolationmode none
attr recordingmode vector
attr source dataAge(packetReceived)
attr title "end-to-end delay"
attr unit s
vector 112 FourLAN.host2.app[1] numActiveSessions:vector ETV
attr autoWarmupFilter false
attr interpolationmode sample-hold
attr recordingmode vector
attr source warmup(sum(connect))
attr title "number of active sessions"
vector 113 FourLAN.host2.app[1] throughput:vector ETV
attr recordingmode vector
attr source throughput(packetReceived)
attr title "throughput of received data"
attr unit bps
vector 114 FourLAN.switch1.bridging packetDropped:vector(packetBytes) ETV
attr interpolationmode none
attr recordingmode vector(packetBytes)
attr title "packets dropped, packetBytes"
vector 115 FourLAN.switch1.ethernet encapPk:vector(packetBytes) ETV
attr interpolationmode none
attr recordingmode vector(packetBytes)
attr source encapPk
attr title "packets encapsulated, packetBytes"
vector 116 FourLAN.switch1.ethernet decapPk:vector(packetBytes) ETV
attr interpolationmode none
attr recordingmode vector(packetBytes)
attr source decapPk
attr title "packets decapsulated, packetBytes"
vector 117 FourLAN.switch1.ethernet pauseSent:vector ETV
attr recordingmode vector
attr title "pause sent"
vector 118 FourLAN.switch1.eth[0].queue queueLength:vector ETV
attr autoWarmupFilter false
attr interpolationmode sample-hold
attr recordingmode vector
attr source "warmup(atomic(constant0(packetPushEnded) + count(packetPushStarted) - count(packetPulled) - count(packetRemoved) - count(packetDropped)))"
attr title "queue length"
attr unit pk
vector 119 FourLAN.switch1.eth[0].queue queueBitLength:vector ETV
attr autoWarmupFilter false
attr interpolationmode sample-hold
attr recordingmode vector
attr source "warmup(atomic(constant0(packetPushEnded) + sum(packetLength(packetPushStarted)) - sum(packetLength(packetPulled)) - sum(packetLength(packetRemoved)) - sum(packetLength(packetDropped))))"
attr title "queue bit length"
attr unit b
vector 120 FourLAN.switch1.eth[0].queue queueingTime:vector ETV
attr interpolationmode none
attr recordingmode vector
attr source queueingTime(packetPulled)
attr title "queueing times"
attr unit s
vector 121 FourLAN.switch1.eth[0].queue incomingPacketLengths:vector ETV
attr interpolationmode none
attr recordingmode vector
attr source packetLength(packetPushStarted)
attr title "incoming packet lengths"
attr unit b
vector 122 FourLAN.switch1.eth[0].queue incomingDataRate:vector ETV
attr interpolationmode linear
attr recordingmode vector
attr source throughput(packetPushStarted)
attr title "incoming datarate"
attr unit bps
vector 123 FourLAN.switch1.eth[0].queue outgoingPacketLengths:vector ETV
attr interpolationmode none
attr recordingmode vector
attr source packetLength(packetPulled)
attr title "outgoing packet lengths"
attr unit b
vector 124 FourLAN.switch1.eth[0].queue outgoingDataRate:vector ETV
attr interpolationmode linear
attr recordingmode vector
attr source throughput(packetPulled)
attr title "outgoing datarate"
attr unit bps
vector 125 FourLAN.switch1.eth[0].queue droppedPacketLengthsQueueOverflow:vector ETV
attr interpolationmode none
attr recordingmode vector
attr source packetLength(packetDropReasonIsQueueOverflow(packetDropped))
attr title "dropped packet lengths: queue overflow"
attr unit b
vector 126 FourLAN.switch1.eth[0].queue flowQueueingTime:vector ETV
attr interpolationmode none
attr recordingmode vector
attr source queueingTime(demuxFlow(packetPulled))
attr title "flow queueing times"
attr unit s
vector 127 FourLAN.switch1.eth[0].queue flowIncomingDataRate:vector ETV
attr interpolationmode linear
attr recordingmode vector
attr source throughput(flowPacketLength(demuxFlow(packetPushStarted)))
attr title "flow specific incoming data rate"
attr unit bps
vector 128 FourLAN.switch1.eth[0].queue flowOutgoingDataRate:vector ETV
attr interpolationmode linear
attr recordingmode vector
attr source throughput(flowPacketLength(demuxFlow(packetPulled)))
attr title "flow specific outgoing data rate"
attr unit bps
vector 129 FourLAN.switch1.eth[0].mac transmitting:vector ETV
attr interpolationmode sample-hold
attr recordingmode vector
attr source "count(transmissionStarted) - count(transmissionEnded)"
attr title "transmitting state"
attr type int
vector 130 FourLAN.switch1.eth[0].mac throughput:vector ETV
attr interpolationmode linear
attr recordingmode vector
attr source throughput(transmissionEnded)
attr title throughput
attr unit bps
vector 131 FourLAN.switch1.eth[0].mac utilization:vector ETV
attr interpolationmode linear
attr recordingmode vector
attr source "100 * utilization(count(transmissionStarted) - count(transmissionEnded))"
attr title utilization
attr unit %
vector 132 FourLAN.switch1.eth[0].mac txPk:vector(packetBytes) ETV
attr interpolationmode none
attr recordingmode vector(packetBytes)
attr source packetSentToLower
attr title "packets transmitted, packetBytes"
vector 133 FourLAN.switch1.eth[0].mac rxPkOk:vector(packetBytes) ETV
attr interpolationmode none
attr recordingmode vector(packetBytes)
attr source rxPkOk
attr title "packets received OK, packetBytes"
vector 134 FourLAN.switch1.eth[0].mac passedUpPk:vector(packetBytes) ETV
attr interpolationmode none
attr recordingmode vector(packetBytes)
attr source packetSentToUpper
attr title "packets passed to higher layer, packetBytes"
vector 135 FourLAN.switch1.eth[0].mac txPausePkUnits:vector ETV
attr interpolationmode none
attr recordingmode vector
attr title "pause units sent"
vector 136 FourLAN.switch1.eth[0].mac rxPausePkUnits:vector ETV
attr interpolationmode none
attr recordingmode vector
attr title "pause units received"
vector 137 FourLAN.switch1.eth[0].mac packetReceivedFromUpper:vector(packetBytes) ETV
attr interpolationmode none
attr recordingmode vector(packetBytes)
attr source packetReceivedFromUpper
attr title "packet bytes from higher layer, packetBytes"
vector 138 FourLAN.switch1.eth[0].mac packetDropIncorrectlyReceived:vector(packetBytes) ETV
attr interpolationmode none
attr recordingmode vector(packetBytes)
attr source packetDropReasonIsIncorrectlyReceived(packetDropped)
attr title "packet drop: incorrectly received, packetBytes"
vector 139 FourLAN.switch1.eth[0].mac packetDropInterfaceDown:vector(packetBytes) ETV
attr interpolationmode none
attr recordingmode vector(packetBytes)
attr source packetDropReasonIsInterfaceDown(packetDropped)
attr title "packet drop: interface down, packetBytes"
vector 140 FourLAN.switch1.eth[0].mac packetDropNotAddressedToUs:vector(packetBytes) ETV
attr interpolationmode none
attr recordingmode vector(packetBytes)
attr source packetDropReasonIsNotAddressedToUs(packetDropped)
attr title "packet drop: not addressed to us, packetBytes"
vector 141 FourLAN.switch1.eth[0] packetDropInterfaceDown:vector(packetBytes) ETV
attr interpolationmode none
attr recordingmode vector(packetBytes)
attr source packetDropReasonIsInterfaceDown(packetDropped)
attr title "packet drops: interface down, packetBytes"
vector 142 FourLAN.switch1.eth[0] packetDropNoCarrier:vector(packetBytes) ETV
attr interpolationmode none
attr recordingmode vector(packetBytes)
attr source packetDropReasonIsNoCarrier(packetDropped)
attr title "packet drops: no carrier, packetBytes"
vector 143 FourLAN.switch1.eth[1].queue queueLength:vector ETV
attr autoWarmupFilter false
attr interpolationmode sample-hold
attr recordingmode vector
attr source "warmup(atomic(constant0(packetPushEnded) + count(packetPushStarted) - count(packetPulled) - count(packetRemoved) - count(packetDropped)))"
attr title "queue length"
attr unit pk
vector 144 FourLAN.switch1.eth[1].queue queueBitLength:vector ETV
attr autoWarmupFilter false
attr interpolationmode sample-hold
attr recordingmode vector
attr source "warmup(atomic(constant0(packetPushEnded) + sum(packetLength(packetPushStarted)) - sum(packetLength(packetPulled)) - sum(packetLength(packetRemoved)) - sum(packetLength(packetDropped))))"
attr title "queue bit length"
attr unit b
vector 145 FourLAN.switch1.eth[1].queue queueingTime:vector ETV
attr interpolationmode none
attr recordingmode vector
attr source queueingTime(packetPulled)
attr title "queueing times"
attr unit s
vector 146 FourLAN.switch1.eth[1].queue incomingPacketLengths:vector ETV
attr interpolationmode none
attr recordingmode vector
attr source packetLength(packetPushStarted)
attr title "incoming packet lengths"
attr unit b
vector 147 FourLAN.switch1.eth[1].queue incomingDataRate:vector ETV
attr interpolationmode linear
attr recordingmode vector
attr source throughput(packetPushStarted)
attr title "incoming datarate"
attr unit bps
vector 148 FourLAN.switch1.eth[1].queue outgoingPacketLengths:vector ETV
attr interpolationmode none
attr recordingmode vector
attr source packetLength(packetPulled)
attr title "outgoing packet lengths"
attr unit b
vector 149 FourLAN.switch1.eth[1].queue outgoingDataRate:vector ETV
attr interpolationmode linear
attr recordingmode vector
attr source throughput(packetPulled)
attr title "outgoing datarate"
attr unit bps
vector 150 FourLAN.switch1.eth[1].queue droppedPacketLengthsQueueOverflow:vector ETV
attr interpolationmode none
attr recordingmode vector
attr source packetLength(packetDropReasonIsQueueOverflow(packetDropped))
attr title "dropped packet lengths: queue overflow"
attr unit b
vector 151 FourLAN.switch1.eth[1].queue flowQueueingTime:vector ETV
attr interpolationmode none
attr recordingmode vector
attr source queueingTime(demuxFlow(packetPulled))
attr title "flow queueing times"
attr unit s
vector 152 FourLAN.switch1.eth[1].queue flowIncomingDataRate:vector ETV
attr interpolationmode linear
attr recordingmode vector
attr source throughput(flowPacketLength(demuxFlow(packetPushStarted)))
attr title "flow specific incoming data rate"
attr unit bps
vector 153 FourLAN.switch1.eth[1].queue flowOutgoingDataRate:vector ETV
attr interpolationmode linear
attr recordingmode vector
attr source throughput(flowPacketLength(demuxFlow(packetPulled)))
attr title "flow specific outgoing data rate"
attr unit bps
vector 154 FourLAN.switch1.eth[1].mac transmitting:vector ETV
attr interpolationmode sample-hold
attr recordingmode vector
attr source "count(transmissionStarted) - count(transmissionEnded)"
attr title "transmitting state"
attr type int
vector 155 FourLAN.switch1.eth[1].mac throughput:vector ETV
attr interpolationmode linear
attr recordingmode vector
attr source throughput(transmissionEnded)
attr title throughput
attr unit bps
vector 156 FourLAN.switch1.eth[1].mac utilization:vector ETV
attr interpolationmode linear
attr recordingmode vector
attr source "100 * utilization(count(transmissionStarted) - count(transmissionEnded))"
attr title utilization
attr unit %
vector 157 FourLAN.switch1.eth[1].mac txPk:vector(packetBytes) ETV
attr interpolationmode none
attr recordingmode vector(packetBytes)
attr source packetSentToLower
attr title "packets transmitted, packetBytes"
vector 158 FourLAN.switch1.eth[1].mac rxPkOk:vector(packetBytes) ETV
attr interpolationmode none
attr recordingmode vector(packetBytes)
attr source rxPkOk
attr title "packets received OK, packetBytes"
vector 159 FourLAN.switch1.eth[1].mac passedUpPk:vector(packetBytes) ETV
attr interpolationmode none
attr recordingmode vector(packetBytes)
attr source packetSentToUpper
attr title "packets passed to higher layer, packetBytes"
vector 160 FourLAN.switch1.eth[1].mac txPausePkUnits:vector ETV
attr interpolationmode none
attr recordingmode vector
attr title "pause units sent"
vector 161 FourLAN.switch1.eth[1].mac rxPausePkUnits:vector ETV
attr interpolationmode none
attr recordingmode vector
attr title "pause units received"
vector 162 FourLAN.switch1.eth[1].mac packetReceivedFromUpper:vector(packetBytes) ETV
attr interpolationmode none
attr recordingmode vector(packetBytes)
attr source packetReceivedFromUpper
attr title "packet bytes from higher layer, packetBytes"
vector 163 FourLAN.switch1.eth[1].mac packetDropIncorrectlyReceived:vector(packetBytes) ETV
attr interpolationmode none
attr recordingmode vector(packetBytes)
attr source packetDropReasonIsIncorrectlyReceived(packetDropped)
attr title "packet drop: incorrectly received, packetBytes"
vector 164 FourLAN.switch1.eth[1].mac packetDropInterfaceDown:vector(packetBytes) ETV
attr interpolationmode none
attr recordingmode vector(packetBytes)
attr source packetDropReasonIsInterfaceDown(packetDropped)
attr title "packet drop: interface down, packetBytes"
vector 165 FourLAN.switch1.eth[1].mac packetDropNotAddressedToUs:vector(packetBytes) ETV
attr interpolationmode none
attr recordingmode vector(packetBytes)
attr source packetDropReasonIsNotAddressedToUs(packetDropped)
attr title "packet drop: not addressed to us, packetBytes"
vector 166 FourLAN.switch1.eth[1] packetDropInterfaceDown:vector(packetBytes) ETV
attr interpolationmode none
attr recordingmode vector(packetBytes)
attr source packetDropReasonIsInterfaceDown(packetDropped)
attr title "packet drops: interface down, packetBytes"
vector 167 FourLAN.switch1.eth[1] packetDropNoCarrier:vector(packetBytes) ETV
attr interpolationmode none
attr recordingmode vector(packetBytes)
attr source packetDropReasonIsNoCarrier(packetDropped)
attr title "packet drops: no carrier, packetBytes"
vector 168 FourLAN.switch1.eth[2].queue queueLength:vector ETV
attr autoWarmupFilter false
attr interpolationmode sample-hold
attr recordingmode vector
attr source "warmup(atomic(constant0(packetPushEnded) + count(packetPushStarted) - count(packetPulled) - count(packetRemoved) - count(packetDropped)))"
attr title "queue length"
attr unit pk
vector 169 FourLAN.switch1.eth[2].queue queueBitLength:vector ETV
attr autoWarmupFilter false
attr interpolationmode sample-hold
attr recordingmode vector
attr source "warmup(atomic(constant0(packetPushEnded) + sum(packetLength(packetPushStarted)) - sum(packetLength(packetPulled)) - sum(packetLength(packetRemoved)) - sum(packetLength(packetDropped))))"
attr title "queue bit length"
attr unit b
vector 170 FourLAN.switch1.eth[2].queue queueingTime:vector ETV
attr interpolationmode none
attr recordingmode vector
attr source queueingTime(packetPulled)
attr title "queueing times"
attr unit s
vector 171 FourLAN.switch1.eth[2].queue incomingPacketLengths:vector ETV
attr interpolationmode none
attr recordingmode vector
attr source packetLength(packetPushStarted)
attr title "incoming packet lengths"
attr unit b
vector 172 FourLAN.switch1.eth[2].queue incomingDataRate:vector ETV
attr interpolationmode linear
attr recordingmode vector
attr source throughput(packetPushStarted)
attr title "incoming datarate"
attr unit bps
vector 173 FourLAN.switch1.eth[2].queue outgoingPacketLengths:vector ETV
attr interpolationmode none
attr recordingmode vector
attr source packetLength(packetPulled)
attr title "outgoing packet lengths"
attr unit b
vector 174 FourLAN.switch1.eth[2].queue outgoingDataRate:vector ETV
attr interpolationmode linear
attr recordingmode vector
attr source throughput(packetPulled)
attr title "outgoing datarate"
attr unit bps
vector 175 FourLAN.switch1.eth[2].queue droppedPacketLengthsQueueOverflow:vector ETV
attr interpolationmode none
attr recordingmode vector
attr source packetLength(packetDropReasonIsQueueOverflow(packetDropped))
attr title "dropped packet lengths: queue overflow"
attr unit b
vector 176 FourLAN.switch1.eth[2].queue flowQueueingTime:vector ETV
attr interpolationmode none
attr recordingmode vector
attr source queueingTime(demuxFlow(packetPulled))
attr title "flow queueing times"
attr unit s
vector 177 FourLAN.switch1.eth[2].queue flowIncomingDataRate:vector ETV
attr interpolationmode linear
attr recordingmode vector
attr source throughput(flowPacketLength(demuxFlow(packetPushStarted)))
attr title "flow specific incoming data rate"
attr unit bps
vector 178 FourLAN.switch1.eth[2].queue flowOutgoingDataRate:vector ETV
attr interpolationmode linear
attr recordingmode vector
attr source throughput(flowPacketLength(demuxFlow(packetPulled)))
attr title "flow specific outgoing data rate"
attr unit bps
vector 179 FourLAN.switch1.eth[2].mac transmitting:vector ETV
attr interpolationmode sample-hold
attr recordingmode vector
attr source "count(transmissionStarted) - count(transmissionEnded)"
attr title "transmitting state"
attr type int
vector 180 FourLAN.switch1.eth[2].mac throughput:vector ETV
attr interpolationmode linear
attr recordingmode vector
attr source throughput(transmissionEnded)
attr title throughput
attr unit bps
vector 181 FourLAN.switch1.eth[2].mac utilization:vector ETV
attr interpolationmode linear
attr recordingmode vector
attr source "100 * utilization(count(transmissionStarted) - count(transmissionEnded))"
attr title utilization
attr unit %
vector 182 FourLAN.switch1.eth[2].mac txPk:vector(packetBytes) ETV
attr interpolationmode none
attr recordingmode vector(packetBytes)
attr source packetSentToLower
attr title "packets transmitted, packetBytes"
vector 183 FourLAN.switch1.eth[2].mac rxPkOk:vector(packetBytes) ETV
attr interpolationmode none
attr recordingmode vector(packetBytes)
attr source rxPkOk
attr title "packets received OK, packetBytes"
vector 184 FourLAN.switch1.eth[2].mac passedUpPk:vector(packetBytes) ETV
attr interpolationmode none
attr recordingmode vector(packetBytes)
attr source packetSentToUpper
attr title "packets passed to higher layer, packetBytes"
vector 185 FourLAN.switch1.eth[2].mac txPausePkUnits:vector ETV
attr interpolationmode none
attr recordingmode vector
attr title "pause units sent"
vector 186 FourLAN.switch1.eth[2].mac rxPausePkUnits:vector ETV
attr interpolationmode none
attr recordingmode vector
attr title "pause units received"
vector 187 FourLAN.switch1.eth[2].mac packetReceivedFromUpper:vector(packetBytes) ETV
attr interpolationmode none
attr recordingmode vector(packetBytes)
attr source packetReceivedFromUpper
attr title "packet bytes from higher layer, packetBytes"
vector 188 FourLAN.switch1.eth[2].mac packetDropIncorrectlyReceived:vector(packetBytes) ETV
attr interpolationmode none
attr recordingmode vector(packetBytes)
attr source packetDropReasonIsIncorrectlyReceived(packetDropped)
attr title "packet drop: incorrectly received, packetBytes"
vector 189 FourLAN.switch1.eth[2].mac packetDropInterfaceDown:vector(packetBytes) ETV
attr interpolationmode none
attr recordingmode vector(packetBytes)
attr source packetDropReasonIsInterfaceDown(packetDropped)
attr title "packet drop: interface down, packetBytes"
vector 190 FourLAN.switch1.eth[2].mac packetDropNotAddressedToUs:vector(packetBytes) ETV
attr interpolationmode none
attr recordingmode vector(packetBytes)
attr source packetDropReasonIsNotAddressedToUs(packetDropped)
attr title "packet drop: not addressed to us, packetBytes"
vector 191 FourLAN.switch1.eth[2] packetDropInterfaceDown:vector(packetBytes) ETV
attr interpolationmode none
attr recordingmode vector(packetBytes)
attr source packetDropReasonIsInterfaceDown(packetDropped)
attr title "packet drops: interface down, packetBytes"
vector 192 FourLAN.switch1.eth[2] packetDropNoCarrier:vector(packetBytes) ETV
attr interpolationmode none
attr recordingmode vector(packetBytes)
attr source packetDropReasonIsNoCarrier(packetDropped)
attr title "packet drops: no carrier, packetBytes"
vector 193 FourLAN.router1.ethernet encapPk:vector(packetBytes) ETV
attr interpolationmode none
attr recordingmode vector(packetBytes)
attr source encapPk
attr title "packets encapsulated, packetBytes"
vector 194 FourLAN.router1.ethernet decapPk:vector(packetBytes) ETV
attr interpolationmode none
attr recordingmode vector(packetBytes)
attr source decapPk
attr title "packets decapsulated, packetBytes"
vector 195 FourLAN.router1.ethernet pauseSent:vector ETV
attr recordingmode vector
attr title "pause sent"
vector 196 FourLAN.router1.lo[0].lo rcvdPkFromHl:vector(packetBytes) ETV
attr interpolationmode none
attr recordingmode vector(packetBytes)
attr source packetReceivedFromUpper
attr title "packets received from higher layer, packetBytes"
vector 197 FourLAN.router1.lo[0].lo passedUpPk:vector(packetBytes) ETV
attr interpolationmode none
attr recordingmode vector(packetBytes)
attr source packetSentToUpper
attr title "packets passed to higher layer, packetBytes"
vector 198 FourLAN.router1.lo[0] packetDropInterfaceDown:vector(packetBytes) ETV
attr interpolationmode none
attr recordingmode vector(packetBytes)
attr source packetDropReasonIsInterfaceDown(packetDropped)
attr title "packet drops: interface down, packetBytes"
vector 199 FourLAN.router1.lo[0] packetDropNoCarrier:vector(packetBytes) ETV
attr interpolationmode none
attr recordingmode vector(packetBytes)
attr source packetDropReasonIsNoCarrier(packetDropped)
attr title "packet drops: no carrier, packetBytes"
vector 200 FourLAN.router1.ppp[0].queue queueLength:vector ETV
attr autoWarmupFilter false
attr interpolationmode sample-hold
attr recordingmode vector
attr source "warmup(atomic(constant0(packetPushEnded) + count(packetPushStarted) - count(packetPulled) - count(packetRemoved) - count(packetDropped)))"
attr title "queue length"
attr unit pk
vector 201 FourLAN.router1.ppp[0].queue queueBitLength:vector ETV
attr autoWarmupFilter false
attr interpolationmode sample-hold
attr recordingmode vector
attr source "warmup(atomic(constant0(packetPushEnded) + sum(packetLength(packetPushStarted)) - sum(packetLength(packetPulled)) - sum(packetLength(packetRemoved)) - sum(packetLength(packetDropped))))"
attr title "queue bit length"
attr unit b
vector 202 FourLAN.router1.ppp[0].queue queueingTime:vector ETV
attr interpolationmode none
attr recordingmode vector
attr source queueingTime(packetPulled)
attr title "queueing times"
attr unit s
vector 203 FourLAN.router1.ppp[0].queue incomingPacketLengths:vector ETV
attr interpolationmode none
attr recordingmode vector
attr source packetLength(packetPushStarted)
attr title "incoming packet lengths"
attr unit b
vector 204 FourLAN.router1.ppp[0].queue incomingDataRate:vector ETV
attr interpolationmode linear
attr recordingmode vector
attr source throughput(packetPushStarted)
attr title "incoming datarate"
attr unit bps
vector 205 FourLAN.router1.ppp[0].queue outgoingPacketLengths:vector ETV
attr interpolationmode none
attr recordingmode vector
attr source packetLength(packetPulled)
attr title "outgoing packet lengths"
attr unit b
vector 206 FourLAN.router1.ppp[0].queue outgoingDataRate:vector ETV
attr interpolationmode linear
attr recordingmode vector
attr source throughput(packetPulled)
attr title "outgoing datarate"
attr unit bps
vector 207 FourLAN.router1.ppp[0].queue droppedPacketLengthsQueueOverflow:vector ETV
attr interpolationmode none
attr recordingmode vector
attr source packetLength(packetDropReasonIsQueueOverflow(packetDropped))
attr title "dropped packet lengths: queue overflow"
attr unit b
vector 208 FourLAN.router1.ppp[0].queue flowQueueingTime:vector ETV
attr interpolationmode none
attr recordingmode vector
attr source queueingTime(demuxFlow(packetPulled))
attr title "flow queueing times"
attr unit s
vector 209 FourLAN.router1.ppp[0].queue flowIncomingDataRate:vector ETV
attr interpolationmode linear
attr recordingmode vector
attr source throughput(flowPacketLength(demuxFlow(packetPushStarted)))
attr title "flow specific incoming data rate"
attr unit bps
vector 210 FourLAN.router1.ppp[0].queue flowOutgoingDataRate:vector ETV
attr interpolationmode linear
attr recordingmode vector
attr source throughput(flowPacketLength(demuxFlow(packetPulled)))
attr title "flow specific outgoing data rate"
attr unit bps
vector 211 FourLAN.router1.ppp[0].ppp transmissionState:vector ETV
attr interpolationmode sample-hold
attr recordingmode vector
attr source transmissionStateChanged
attr title "tx state"
vector 212 FourLAN.router1.ppp[0].ppp txPk:vector(packetBytes) ETV
attr interpolationmode none
attr recordingmode vector(packetBytes)
attr source packetSentToLower
attr title "packets transmitted, packetBytes"
vector 213 FourLAN.router1.ppp[0].ppp rxPkOk:vector(packetBytes) ETV
attr interpolationmode none
attr recordingmode vector(packetBytes)
attr source rxPkOk
attr title "packets received OK, packetBytes"
vector 214 FourLAN.router1.ppp[0].ppp packetDropIncorrectlyReceived:vector(packetBytes) ETV
attr interpolationmode none
attr recordingmode vector(packetBytes)
attr source packetDropReasonIsIncorrectlyReceived(packetDropped)
attr title "packet drop: incorrectly received, packetBytes"
vector 215 FourLAN.router1.ppp[0].ppp packetDropInterfaceDown:vector(packetBytes) ETV
attr interpolationmode none
attr recordingmode vector(packetBytes)
attr source packetDropReasonIsInterfaceDown(packetDropped)
attr title "packet drop: interface down, packetBytes"
vector 216 FourLAN.router1.ppp[0].ppp rcvdPkFromHl:vector(packetBytes) ETV
attr interpolationmode none
attr recordingmode vector(packetBytes)
attr source packetReceivedFromUpper
attr title "packets received from higher layer, packetBytes"
vector 217 FourLAN.router1.ppp[0].ppp passedUpPk:vector(packetBytes) ETV
attr interpolationmode none
attr recordingmode vector(packetBytes)
attr source packetSentToUpper
attr title "packets passed to higher layer, packetBytes"
vector 218 FourLAN.router1.ppp[0] packetDropInterfaceDown:vector(packetBytes) ETV
attr interpolationmode none
attr recordingmode vector(packetBytes)
attr source packetDropReasonIsInterfaceDown(packetDropped)
attr title "packet drops: interface down, packetBytes"
vector 219 FourLAN.router1.ppp[0] packetDropNoCarrier:vector(packetBytes) ETV
attr interpolationmode none
attr recordingmode vector(packetBytes)
attr source packetDropReasonIsNoCarrier(packetDropped)
attr title "packet drops: no carrier, packetBytes"
vector 220 FourLAN.router1.eth[0].queue queueLength:vector ETV
attr autoWarmupFilter false
attr interpolationmode sample-hold
attr recordingmode vector
attr source "warmup(atomic(constant0(packetPushEnded) + count(packetPushStarted) - count(packetPulled) - count(packetRemoved) - count(packetDropped)))"
attr title "queue length"
attr unit pk
vector 221 FourLAN.router1.eth[0].queue queueBitLength:vector ETV
attr autoWarmupFilter false
attr interpolationmode sample-hold
attr recordingmode vector
attr source "warmup(atomic(constant0(packetPushEnded) + sum(packetLength(packetPushStarted)) - sum(packetLength(packetPulled)) - sum(packetLength(packetRemoved)) - sum(packetLength(packetDropped))))"
attr title "queue bit length"
attr unit b
vector 222 FourLAN.router1.eth[0].queue queueingTime:vector ETV
attr interpolationmode none
attr recordingmode vector
attr source queueingTime(packetPulled)
attr title "queueing times"
attr unit s
vector 223 FourLAN.router1.eth[0].queue incomingPacketLengths:vector ETV
attr interpolationmode none
attr recordingmode vector
attr source packetLength(packetPushStarted)
attr title "incoming packet lengths"
attr unit b
vector 224 FourLAN.router1.eth[0].queue incomingDataRate:vector ETV
attr interpolationmode linear
attr recordingmode vector
attr source throughput(packetPushStarted)
attr title "incoming datarate"
attr unit bps
vector 225 FourLAN.router1.eth[0].queue outgoingPacketLengths:vector ETV
attr interpolationmode none
attr recordingmode vector
attr source packetLength(packetPulled)
attr title "outgoing packet lengths"
attr unit b
vector 226 FourLAN.router1.eth[0].queue outgoingDataRate:vector ETV
attr interpolationmode linear
attr recordingmode vector
attr source throughput(packetPulled)
attr title "outgoing datarate"
attr unit bps
vector 227 FourLAN.router1.eth[0].queue droppedPacketLengthsQueueOverflow:vector ETV
attr interpolationmode none
attr recordingmode vector
attr source packetLength(packetDropReasonIsQueueOverflow(packetDropped))
attr title "dropped packet lengths: queue overflow"
attr unit b
vector 228 FourLAN.router1.eth[0].queue flowQueueingTime:vector ETV
attr interpolationmode none
attr recordingmode vector
attr source queueingTime(demuxFlow(packetPulled))
attr title "flow queueing times"
attr unit s
vector 229 FourLAN.router1.eth[0].queue flowIncomingDataRate:vector ETV
attr interpolationmode linear
attr recordingmode vector
attr source throughput(flowPacketLength(demuxFlow(packetPushStarted)))
attr title "flow specific incoming data rate"
attr unit bps
vector 230 FourLAN.router1.eth[0].queue flowOutgoingDataRate:vector ETV
attr interpolationmode linear
attr recordingmode vector
attr source throughput(flowPacketLength(demuxFlow(packetPulled)))
attr title "flow specific outgoing data rate"
attr unit bps
vector 231 FourLAN.router1.eth[0].mac transmitting:vector ETV
attr interpolationmode sample-hold
attr recordingmode vector
attr source "count(transmissionStarted) - count(transmissionEnded)"
attr title "transmitting state"
attr type int
vector 232 FourLAN.router1.eth[0].mac throughput:vector ETV
attr interpolationmode linear
attr recordingmode vector
attr source throughput(transmissionEnded)
attr title throughput
attr unit bps
vector 233 FourLAN.router1.eth[0].mac utilization:vector ETV
attr interpolationmode linear
attr recordingmode vector
attr source "100 * utilization(count(transmissionStarted) - count(transmissionEnded))"
attr title utilization
attr unit %
vector 234 FourLAN.router1.eth[0].mac txPk:vector(packetBytes) ETV
attr interpolationmode none
attr recordingmode vector(packetBytes)
attr source packetSentToLower
attr title "packets transmitted, packetBytes"
vector 235 FourLAN.router1.eth[0].mac rxPkOk:vector(packetBytes) ETV
attr interpolationmode none
attr recordingmode vector(packetBytes)
attr source rxPkOk
attr title "packets received OK, packetBytes"
vector 236 FourLAN.router1.eth[0].mac passedUpPk:vector(packetBytes) ETV
attr interpolationmode none
attr recordingmode vector(packetBytes)
attr source packetSentToUpper
attr title "packets passed to higher layer, packetBytes"
vector 237 FourLAN.router1.eth[0].mac txPausePkUnits:vector ETV
attr interpolationmode none
attr recordingmode vector
attr title "pause units sent"
vector 238 FourLAN.router1.eth[0].mac rxPausePkUnits:vector ETV
attr interpolationmode none
attr recordingmode vector
attr title "pause units received"
vector 239 FourLAN.router1.eth[0].mac packetReceivedFromUpper:vector(packetBytes) ETV
attr interpolationmode none
attr recordingmode vector(packetBytes)
attr source packetReceivedFromUpper
attr title "packet bytes from higher layer, packetBytes"
vector 240 FourLAN.router1.eth[0].mac packetDropIncorrectlyReceived:vector(packetBytes) ETV
attr interpolationmode none
attr recordingmode vector(packetBytes)
attr source packetDropReasonIsIncorrectlyReceived(packetDropped)
attr title "packet drop: incorrectly received, packetBytes"
vector 241 FourLAN.router1.eth[0].mac packetDropInterfaceDown:vector(packetBytes) ETV
attr interpolationmode none
attr recordingmode vector(packetBytes)
attr source packetDropReasonIsInterfaceDown(packetDropped)
attr title "packet drop: interface down, packetBytes"
vector 242 FourLAN.router1.eth[0].mac packetDropNotAddressedToUs:vector(packetBytes) ETV
attr interpolationmode none
attr recordingmode vector(packetBytes)
attr source packetDropReasonIsNotAddressedToUs(packetDropped)
attr title "packet drop: not addressed to us, packetBytes"
vector 243 FourLAN.router1.eth[0] packetDropInterfaceDown:vector(packetBytes) ETV
attr interpolationmode none
attr recordingmode vector(packetBytes)
attr source packetDropReasonIsInterfaceDown(packetDropped)
attr title "packet drops: interface down, packetBytes"
vector 244 FourLAN.router1.eth[0] packetDropNoCarrier:vector(packetBytes) ETV
attr interpolationmode none
attr recordingmode vector(packetBytes)
attr source packetDropReasonIsNoCarrier(packetDropped)
attr title "packet drops: no carrier, packetBytes"
vector 245 FourLAN.router1.ipv4.ip packetDropAddressResolutionFailed:vector(packetBytes) ETV
attr interpolationmode none
attr recordingmode vector(packetBytes)
attr source packetDropReasonIsAddressResolutionFailed(packetDropped)
attr title "packet drop: address resolution failed, packetBytes"
vector 246 FourLAN.router1.ipv4.ip packetDropHopLimitReached:vector(packetBytes) ETV
attr interpolationmode none
attr recordingmode vector(packetBytes)
attr source packetDropReasonIsHopLimitReached(packetDropped)
attr title "packet drop: hop limit reached, packetBytes"
vector 247 FourLAN.router1.ipv4.ip packetDropForwardingDisabled:vector(packetBytes) ETV
attr interpolationmode none
attr recordingmode vector(packetBytes)
attr source packetDropReasonIsForwardingDisabled(packetDropped)
attr title "packet drop: forwarding disabled, packetBytes"
vector 248 FourLAN.router1.ipv4.ip packetDropLifetimeExpired:vector(packetBytes) ETV
attr interpolationmode none
attr recordingmode vector(packetBytes)
attr source packetDropReasonIsLifetimeExpired(packetDropped)
attr title "packet drop: lifetime expired, packetBytes"
vector 249 FourLAN.router1.ipv4.ip packetDropNoInterfaceFound:vector(packetBytes) ETV
attr interpolationmode none
attr recordingmode vector(packetBytes)
attr source packetDropReasonIsNoInterfaceFound(packetDropped)
attr title "packet drop: no interface found, packetBytes"
vector 250 FourLAN.router1.ipv4.ip packetDropNoRouteFound:vector(packetBytes) ETV
attr interpolationmode none
attr recordingmode vector(packetBytes)
attr source packetDropReasonIsNoRouteFound(packetDropped)
attr title "packet drop: no route found, packetBytes"
vector 251 FourLAN.router1.ipv4.ip packetDropUndefined:vector(packetBytes) ETV
attr interpolationmode none
attr recordingmode vector(packetBytes)
attr source packetDropReasonIsUndefined(packetDropped)
attr title "packet drop: undefined, packetBytes"
vector 252 FourLAN.router1.ipv4.arp arpRequestSent:vector(packetBytes) ETV
attr recordingmode vector(packetBytes)
attr source arpRequestSent
attr title "ARP request sent, packetBytes"
vector 253 FourLAN.router1.ipv4.arp arpReplySent:vector(packetBytes) ETV
attr recordingmode vector(packetBytes)
attr source arpReplySent
attr title "ARP replies sent, packetBytes"
vector 254 FourLAN.router2.ethernet encapPk:vector(packetBytes) ETV
attr interpolationmode none
attr recordingmode vector(packetBytes)
attr source encapPk
attr title "packets encapsulated, packetBytes"
vector 255 FourLAN.router2.ethernet decapPk:vector(packetBytes) ETV
attr interpolationmode none
attr recordingmode vector(packetBytes)
attr source decapPk
attr title "packets decapsulated, packetBytes"
vector 256 FourLAN.router2.ethernet pauseSent:vector ETV
attr recordingmode vector
attr title "pause sent"
vector 257 FourLAN.router2.lo[0].lo rcvdPkFromHl:vector(packetBytes) ETV
attr interpolationmode none
attr recordingmode vector(packetBytes)
attr source packetReceivedFromUpper
attr title "packets received from higher layer, packetBytes"
vector 258 FourLAN.router2.lo[0].lo passedUpPk:vector(packetBytes) ETV
attr interpolationmode none
attr recordingmode vector(packetBytes)
attr source packetSentToUpper
attr title "packets passed to higher layer, packetBytes"
vector 259 FourLAN.router2.lo[0] packetDropInterfaceDown:vector(packetBytes) ETV
attr interpolationmode none
attr recordingmode vector(packetBytes)
attr source packetDropReasonIsInterfaceDown(packetDropped)
attr title "packet drops: interface down, packetBytes"
vector 260 FourLAN.router2.lo[0] packetDropNoCarrier:vector(packetBytes) ETV
attr interpolationmode none
attr recordingmode vector(packetBytes)
attr source packetDropReasonIsNoCarrier(packetDropped)
attr title "packet drops: no carrier, packetBytes"
vector 261 FourLAN.router2.ppp[0].queue queueLength:vector ETV
attr autoWarmupFilter false
attr interpolationmode sample-hold
attr recordingmode vector
attr source "warmup(atomic(constant0(packetPushEnded) + count(packetPushStarted) - count(packetPulled) - count(packetRemoved) - count(packetDropped)))"
attr title "queue length"
attr unit pk
vector 262 FourLAN.router2.ppp[0].queue queueBitLength:vector ETV
attr autoWarmupFilter false
attr interpolationmode sample-hold
attr recordingmode vector
attr source "warmup(atomic(constant0(packetPushEnded) + sum(packetLength(packetPushStarted)) - sum(packetLength(packetPulled)) - sum(packetLength(packetRemoved)) - sum(packetLength(packetDropped))))"
attr title "queue bit length"
attr unit b
vector 263 FourLAN.router2.ppp[0].queue queueingTime:vector ETV
attr interpolationmode none
attr recordingmode vector
attr source queueingTime(packetPulled)
attr title "queueing times"
attr unit s
vector 264 FourLAN.router2.ppp[0].queue incomingPacketLengths:vector ETV
attr interpolationmode none
attr recordingmode vector
attr source packetLength(packetPushStarted)
attr title "incoming packet lengths"
attr unit b
vector 265 FourLAN.router2.ppp[0].queue incomingDataRate:vector ETV
attr interpolationmode linear
attr recordingmode vector
attr source throughput(packetPushStarted)
attr title "incoming datarate"
attr unit bps
vector 266 FourLAN.router2.ppp[0].queue outgoingPacketLengths:vector ETV
attr interpolationmode none
attr recordingmode vector
attr source packetLength(packetPulled)
attr title "outgoing packet lengths"
attr unit b
vector 267 FourLAN.router2.ppp[0].queue outgoingDataRate:vector ETV
attr interpolationmode linear
attr recordingmode vector
attr source throughput(packetPulled)
attr title "outgoing datarate"
attr unit bps
vector 268 FourLAN.router2.ppp[0].queue droppedPacketLengthsQueueOverflow:vector ETV
attr interpolationmode none
attr recordingmode vector
attr source packetLength(packetDropReasonIsQueueOverflow(packetDropped))
attr title "dropped packet lengths: queue overflow"
attr unit b
vector 269 FourLAN.router2.ppp[0].queue flowQueueingTime:vector ETV
attr interpolationmode none
attr recordingmode vector
attr source queueingTime(demuxFlow(packetPulled))
attr title "flow queueing times"
attr unit s
vector 270 FourLAN.router2.ppp[0].queue flowIncomingDataRate:vector ETV
attr interpolationmode linear
attr recordingmode vector
attr source throughput(flowPacketLength(demuxFlow(packetPushStarted)))
attr title "flow specific incoming data rate"
attr unit bps
vector 271 FourLAN.router2.ppp[0].queue flowOutgoingDataRate:vector ETV
attr interpolationmode linear
attr recordingmode vector
attr source throughput(flowPacketLength(demuxFlow(packetPulled)))
attr title "flow specific outgoing data rate"
attr unit bps
vector 272 FourLAN.router2.ppp[0].ppp transmissionState:vector ETV
attr interpolationmode sample-hold
attr recordingmode vector
attr source transmissionStateChanged
attr title "tx state"
vector 273 FourLAN.router2.ppp[0].ppp txPk:vector(packetBytes) ETV
attr interpolationmode none
attr recordingmode vector(packetBytes)
attr source packetSentToLower
attr title "packets transmitted, packetBytes"
vector 274 FourLAN.router2.ppp[0].ppp rxPkOk:vector(packetBytes) ETV
attr interpolationmode none
attr recordingmode vector(packetBytes)
attr source rxPkOk
attr title "packets received OK, packetBytes"
vector 275 FourLAN.router2.ppp[0].ppp packetDropIncorrectlyReceived:vector(packetBytes) ETV
attr interpolationmode none
attr recordingmode vector(packetBytes)
attr source packetDropReasonIsIncorrectlyReceived(packetDropped)
attr title "packet drop: incorrectly received, packetBytes"
vector 276 FourLAN.router2.ppp[0].ppp packetDropInterfaceDown:vector(packetBytes) ETV
attr interpolationmode none
attr recordingmode vector(packetBytes)
attr source packetDropReasonIsInterfaceDown(packetDropped)
attr title "packet drop: interface down, packetBytes"
vector 277 FourLAN.router2.ppp[0].ppp rcvdPkFromHl:vector(packetBytes) ETV
attr interpolationmode none
attr recordingmode vector(packetBytes)
attr source packetReceivedFromUpper
attr title "packets received from higher layer, packetBytes"
vector 278 FourLAN.router2.ppp[0].ppp passedUpPk:vector(packetBytes) ETV
attr interpolationmode none
attr recordingmode vector(packetBytes)
attr source packetSentToUpper
attr title "packets passed to higher layer, packetBytes"
vector 279 FourLAN.router2.ppp[0] packetDropInterfaceDown:vector(packetBytes) ETV
attr interpolationmode none
attr recordingmode vector(packetBytes)
attr source packetDropReasonIsInterfaceDown(packetDropped)
attr title "packet drops: interface down, packetBytes"
vector 280 FourLAN.router2.ppp[0] packetDropNoCarrier:vector(packetBytes) ETV
attr interpolationmode none
attr recordingmode vector(packetBytes)
attr source packetDropReasonIsNoCarrier(packetDropped)
attr title "packet drops: no carrier, packetBytes"
vector 281 FourLAN.router2.eth[0].queue queueLength:vector ETV
attr autoWarmupFilter false
attr interpolationmode sample-hold
attr recordingmode vector
attr source "warmup(atomic(constant0(packetPushEnded) + count(packetPushStarted) - count(packetPulled) - count(packetRemoved) - count(packetDropped)))"
attr title "queue length"
attr unit pk
vector 282 FourLAN.router2.eth[0].queue queueBitLength:vector ETV
attr autoWarmupFilter false
attr interpolationmode sample-hold
attr recordingmode vector
attr source "warmup(atomic(constant0(packetPushEnded) + sum(packetLength(packetPushStarted)) - sum(packetLength(packetPulled)) - sum(packetLength(packetRemoved)) - sum(packetLength(packetDropped))))"
attr title "queue bit length"
attr unit b
vector 283 FourLAN.router2.eth[0].queue queueingTime:vector ETV
attr interpolationmode none
attr recordingmode vector
attr source queueingTime(packetPulled)
attr title "queueing times"
attr unit s
vector 284 FourLAN.router2.eth[0].queue incomingPacketLengths:vector ETV
attr interpolationmode none
attr recordingmode vector
attr source packetLength(packetPushStarted)
attr title "incoming packet lengths"
attr unit b
vector 285 FourLAN.router2.eth[0].queue incomingDataRate:vector ETV
attr interpolationmode linear
attr recordingmode vector
attr source throughput(packetPushStarted)
attr title "incoming datarate"
attr unit bps
vector 286 FourLAN.router2.eth[0].queue outgoingPacketLengths:vector ETV
attr interpolationmode none
attr recordingmode vector
attr source packetLength(packetPulled)
attr title "outgoing packet lengths"
attr unit b
vector 287 FourLAN.router2.eth[0].queue outgoingDataRate:vector ETV
attr interpolationmode linear
attr recordingmode vector
attr source throughput(packetPulled)
attr title "outgoing datarate"
attr unit bps
vector 288 FourLAN.router2.eth[0].queue droppedPacketLengthsQueueOverflow:vector ETV
attr interpolationmode none
attr recordingmode vector
attr source packetLength(packetDropReasonIsQueueOverflow(packetDropped))
attr title "dropped packet lengths: queue overflow"
attr unit b
vector 289 FourLAN.router2.eth[0].queue flowQueueingTime:vector ETV
attr interpolationmode none
attr recordingmode vector
attr source queueingTime(demuxFlow(packetPulled))
attr title "flow queueing times"
attr unit s
vector 290 FourLAN.router2.eth[0].queue flowIncomingDataRate:vector ETV
attr interpolationmode linear
attr recordingmode vector
attr source throughput(flowPacketLength(demuxFlow(packetPushStarted)))
attr title "flow specific incoming data rate"
attr unit bps
vector 291 FourLAN.router2.eth[0].queue flowOutgoingDataRate:vector ETV
attr interpolationmode linear
attr recordingmode vector
attr source throughput(flowPacketLength(demuxFlow(packetPulled)))
attr title "flow specific outgoing data rate"
attr unit bps
vector 292 FourLAN.router2.eth[0].mac transmitting:vector ETV
attr interpolationmode sample-hold
attr recordingmode vector
attr source "count(transmissionStarted) - count(transmissionEnded)"
attr title "transmitting state"
attr type int
vector 293 FourLAN.router2.eth[0].mac throughput:vector ETV
attr interpolationmode linear
attr recordingmode vector
attr source throughput(transmissionEnded)
attr title throughput
attr unit bps
vector 294 FourLAN.router2.eth[0].mac utilization:vector ETV
attr interpolationmode linear
attr recordingmode vector
attr source "100 * utilization(count(transmissionStarted) - count(transmissionEnded))"
attr title utilization
attr unit %
vector 295 FourLAN.router2.eth[0].mac txPk:vector(packetBytes) ETV
attr interpolationmode none
attr recordingmode vector(packetBytes)
attr source packetSentToLower
attr title "packets transmitted, packetBytes"
vector 296 FourLAN.router2.eth[0].mac rxPkOk:vector(packetBytes) ETV
attr interpolationmode none
attr recordingmode vector(packetBytes)
attr source rxPkOk
attr title "packets received OK, packetBytes"
vector 297 FourLAN.router2.eth[0].mac passedUpPk:vector(packetBytes) ETV
attr interpolationmode none
attr recordingmode vector(packetBytes)
attr source packetSentToUpper
attr title "packets passed to higher layer, packetBytes"
vector 298 FourLAN.router2.eth[0].mac txPausePkUnits:vector ETV
attr interpolationmode none
attr recordingmode vector
attr title "pause units sent"
vector 299 FourLAN.router2.eth[0].mac rxPausePkUnits:vector ETV
attr interpolationmode none
attr recordingmode vector
attr title "pause units received"
vector 300 FourLAN.router2.eth[0].mac packetReceivedFromUpper:vector(packetBytes) ETV
attr interpolationmode none
attr recordingmode vector(packetBytes)
attr source packetReceivedFromUpper
attr title "packet bytes from higher layer, packetBytes"
vector 301 FourLAN.router2.eth[0].mac packetDropIncorrectlyReceived:vector(packetBytes) ETV
attr interpolationmode none
attr recordingmode vector(packetBytes)
attr source packetDropReasonIsIncorrectlyReceived(packetDropped)
attr title "packet drop: incorrectly received, packetBytes"
vector 302 FourLAN.router2.eth[0].mac packetDropInterfaceDown:vector(packetBytes) ETV
attr interpolationmode none
attr recordingmode vector(packetBytes)
attr source packetDropReasonIsInterfaceDown(packetDropped)
attr title "packet drop: interface down, packetBytes"
vector 303 FourLAN.router2.eth[0].mac packetDropNotAddressedToUs:vector(packetBytes) ETV
attr interpolationmode none
attr recordingmode vector(packetBytes)
attr source packetDropReasonIsNotAddressedToUs(packetDropped)
attr title "packet drop: not addressed to us, packetBytes"
vector 304 FourLAN.router2.eth[0] packetDropInterfaceDown:vector(packetBytes) ETV
attr interpolationmode none
attr recordingmode vector(packetBytes)
attr source packetDropReasonIsInterfaceDown(packetDropped)
attr title "packet drops: interface down, packetBytes"
vector 305 FourLAN.router2.eth[0] packetDropNoCarrier:vector(packetBytes) ETV
attr interpolationmode none
attr recordingmode vector(packetBytes)
attr source packetDropReasonIsNoCarrier(packetDropped)
attr title "packet drops: no carrier, packetBytes"
vector 306 FourLAN.router2.eth[1].queue queueLength:vector ETV
attr autoWarmupFilter false
attr interpolationmode sample-hold
attr recordingmode vector
attr source "warmup(atomic(constant0(packetPushEnded) + count(packetPushStarted) - count(packetPulled) - count(packetRemoved) - count(packetDropped)))"
attr title "queue length"
attr unit pk
vector 307 FourLAN.router2.eth[1].queue queueBitLength:vector ETV
attr autoWarmupFilter false
attr interpolationmode sample-hold
attr recordingmode vector
attr source "warmup(atomic(constant0(packetPushEnded) + sum(packetLength(packetPushStarted)) - sum(packetLength(packetPulled)) - sum(packetLength(packetRemoved)) - sum(packetLength(packetDropped))))"
attr title "queue bit length"
attr unit b
vector 308 FourLAN.router2.eth[1].queue queueingTime:vector ETV
attr interpolationmode none
attr recordingmode vector
attr source queueingTime(packetPulled)
attr title "queueing times"
attr unit s
vector 309 FourLAN.router2.eth[1].queue incomingPacketLengths:vector ETV
attr interpolationmode none
attr recordingmode vector
attr source packetLength(packetPushStarted)
attr title "incoming packet lengths"
attr unit b
vector 310 FourLAN.router2.eth[1].queue incomingDataRate:vector ETV
attr interpolationmode linear
attr recordingmode vector
attr source throughput(packetPushStarted)
attr title "incoming datarate"
attr unit bps
vector 311 FourLAN.router2.eth[1].queue outgoingPacketLengths:vector ETV
attr interpolationmode none
attr recordingmode vector
attr source packetLength(packetPulled)
attr title "outgoing packet lengths"
attr unit b
vector 312 FourLAN.router2.eth[1].queue outgoingDataRate:vector ETV
attr interpolationmode linear
attr recordingmode vector
attr source throughput(packetPulled)
attr title "outgoing datarate"
attr unit bps
vector 313 FourLAN.router2.eth[1].queue droppedPacketLengthsQueueOverflow:vector ETV
attr interpolationmode none
attr recordingmode vector
attr source packetLength(packetDropReasonIsQueueOverflow(packetDropped))
attr title "dropped packet lengths: queue overflow"
attr unit b
vector 314 FourLAN.router2.eth[1].queue flowQueueingTime:vector ETV
attr interpolationmode none
attr recordingmode vector
attr source queueingTime(demuxFlow(packetPulled))
attr title "flow queueing times"
attr unit s
vector 315 FourLAN.router2.eth[1].queue flowIncomingDataRate:vector ETV
attr interpolationmode linear
attr recordingmode vector
attr source throughput(flowPacketLength(demuxFlow(packetPushStarted)))
attr title "flow specific incoming data rate"
attr unit bps
vector 316 FourLAN.router2.eth[1].queue flowOutgoingDataRate:vector ETV
attr interpolationmode linear
attr recordingmode vector
attr source throughput(flowPacketLength(demuxFlow(packetPulled)))
attr title "flow specific outgoing data rate"
attr unit bps
vector 317 FourLAN.router2.eth[1].mac transmitting:vector ETV
attr interpolationmode sample-hold
attr recordingmode vector
attr source "count(transmissionStarted) - count(transmissionEnded)"
attr title "transmitting state"
attr type int
vector 318 FourLAN.router2.eth[1].mac throughput:vector ETV
attr interpolationmode linear
attr recordingmode vector
attr source throughput(transmissionEnded)
attr title throughput
attr unit bps
vector 319 FourLAN.router2.eth[1].mac utilization:vector ETV
attr interpolationmode linear
attr recordingmode vector
attr source "100 * utilization(count(transmissionStarted) - count(transmissionEnded))"
attr title utilization
attr unit %
vector 320 FourLAN.router2.eth[1].mac txPk:vector(packetBytes) ETV
attr interpolationmode none
attr recordingmode vector(packetBytes)
attr source packetSentToLower
attr title "packets transmitted, packetBytes"
vector 321 FourLAN.router2.eth[1].mac rxPkOk:vector(packetBytes) ETV
attr interpolationmode none
attr recordingmode vector(packetBytes)
attr source rxPkOk
attr title "packets received OK, packetBytes"
vector 322 FourLAN.router2.eth[1].mac passedUpPk:vector(packetBytes) ETV
attr interpolationmode none
attr recordingmode vector(packetBytes)
attr source packetSentToUpper
attr title "packets passed to higher layer, packetBytes"
vector 323 FourLAN.router2.eth[1].mac txPausePkUnits:vector ETV
attr interpolationmode none
attr recordingmode vector
attr title "pause units sent"
vector 324 FourLAN.router2.eth[1].mac rxPausePkUnits:vector ETV
attr interpolationmode none
attr recordingmode vector
attr title "pause units received"
vector 325 FourLAN.router2.eth[1].mac packetReceivedFromUpper:vector(packetBytes) ETV
attr interpolationmode none
attr recordingmode vector(packetBytes)
attr source packetReceivedFromUpper
attr title "packet bytes from higher layer, packetBytes"
vector 326 FourLAN.router2.eth[1].mac packetDropIncorrectlyReceived:vector(packetBytes) ETV
attr interpolationmode none
attr recordingmode vector(packetBytes)
attr source packetDropReasonIsIncorrectlyReceived(packetDropped)
attr title "packet drop: incorrectly received, packetBytes"
vector 327 FourLAN.router2.eth[1].mac packetDropInterfaceDown:vector(packetBytes) ETV
attr interpolationmode none
attr recordingmode vector(packetBytes)
attr source packetDropReasonIsInterfaceDown(packetDropped)
attr title "packet drop: interface down, packetBytes"
vector 328 FourLAN.router2.eth[1].mac packetDropNotAddressedToUs:vector(packetBytes) ETV
attr interpolationmode none
attr recordingmode vector(packetBytes)
attr source packetDropReasonIsNotAddressedToUs(packetDropped)
attr title "packet drop: not addressed to us, packetBytes"
vector 329 FourLAN.router2.eth[1] packetDropInterfaceDown:vector(packetBytes) ETV
attr interpolationmode none
[...]
vector 778 FourLAN.host3.tcp.conn-16 sndSacks:vector ETV
attr interpolationmode sample-hold
attr recordingmode vector
vector 779 FourLAN.host3.tcp.conn-16 rcvSacks:vector ETV
attr interpolationmode sample-hold
attr recordingmode vector
vector 780 FourLAN.host3.tcp.conn-16 rcvOooSeg:vector ETV
attr interpolationmode sample-hold
attr recordingmode vector
vector 781 FourLAN.host3.tcp.conn-16 rcvNASeg:vector ETV
attr interpolationmode sample-hold
attr recordingmode vector
vector 782 FourLAN.host3.tcp.conn-16 sackedBytes:vector ETV
attr interpolationmode sample-hold
attr recordingmode vector
vector 783 FourLAN.host3.tcp.conn-16 tcpRcvQueueBytes:vector ETV
attr interpolationmode sample-hold
attr recordingmode vector
vector 784 FourLAN.host3.tcp.conn-16 tcpRcvQueueDrops:vector ETV
attr interpolationmode sample-hold
attr recordingmode vector
vector 785 FourLAN.host3.tcp.conn-16 tcpRcvPayloadBytes:vector ETV
attr interpolationmode sample-hold
attr recordingmode vector
vector 786 FourLAN.host3.tcp.conn-16 cwnd:vector ETV
attr interpolationmode sample-hold
attr recordingmode vector
vector 787 FourLAN.host3.tcp.conn-16 ssthresh:vector ETV
attr interpolationmode sample-hold
attr recordingmode vector
vector 788 FourLAN.host3.tcp.conn-16 rtt:vector ETV
attr interpolationmode sample-hold
attr recordingmode vector
vector 789 FourLAN.host3.tcp.conn-16 srtt:vector ETV
attr interpolationmode sample-hold
attr recordingmode vector
vector 790 FourLAN.host3.tcp.conn-16 rttvar:vector ETV
attr interpolationmode sample-hold
attr recordingmode vector
vector 791 FourLAN.host3.tcp.conn-16 rto:vector ETV
attr interpolationmode sample-hold
attr recordingmode vector
vector 792 FourLAN.host3.tcp.conn-16 numRtos:vector ETV
attr interpolationmode sample-hold
attr recordingmode vector
vector 793 FourLAN.host3.tcp.conn-16 load:vector ETV
attr interpolationmode sample-hold
attr recordingmode vector
vector 794 FourLAN.host3.tcp.conn-16 calcLoad:vector ETV
attr interpolationmode sample-hold
attr recordingmode vector
vector 795 FourLAN.host3.tcp.conn-16 markingProb:vector ETV
attr interpolationmode sample-hold
attr recordingmode vector
0	177787 85 14 519 2 3 6 28 84 408 30944
1	177872 97 82 497 2.00021152 2.511016 5 46 84 344 25400
7	177969 138 0 534 0 3.00000976 12 0 1 1 1
8	178107 140 0 534 0 3.00000976 12 0 496 496 246016
9	178247 95 18 534 2 3.00000976 6 0 9.76e-06 9.76e-06 9.52576e-11
10	178342 97 18 525 2 3 6 368 816 4128 3044864
11	178439 371 18 524 0.1 3 30 0 20000 28160 466585600
12	178810 106 18 534 2 3.00000976 6 368 816 4128 3044864
13	178916 371 18 524 0.1 3 30 0 20000 28160 466585600
18	179287 229 0 536 0 3.00001552 14 0 1 6 6
19	179516 371 22 530 0.1 3 30 0 23360 32160 623129600
20	179887 375 18 524 0.1 3 30 0 0.02336 0.03216 0.0006231296
21	180262 127 22 536 2.00000576 3.00001552 6 64 102 536 49808
22	180389 105 76 496 2.00021152 2.511016 5 64 102 434 39404
23	180494 105 76 496 2.00021152 2.511016 5 64 102 434 39404
26	180599 104 18 534 2 3.00000976 6 46 102 516 47576
39	180703 10 7 7 2 2 1 28 28 28 784
44	180713 9 0 0 0 0 1 0 0 0 0
45	180722 9 0 0 0 0 1 0 0 0 0
46	180731 9 0 0 0 0 1 0 0 0 0
47	180740 54 416 499 2.01143904 2.511016 2 0.011016 0.01143904 0.02245504 0.0002522038921216
50	180794 33 2 506 2 3 3 0 2 3 5
51	180827 38 416 499 2.01143904 2.511016 2 0 1 1 1
55	180865 20 0 501 0 3 2 0 1 1 1
57	180885 65 15 515 2 3 4 28 84 280 21952
58	180950 83 80 422 2.00021152 2.01151184 4 46 84 260 18344
64	181033 106 0 521 0 3 9 0 0 0 0
65	181139 106 0 521 0 3 9 0 0 0 0
66	181245 61 19 521 2 3 4 0 0 0 0
67	181306 69 19 521 2 3 4 368 816 2816 2132992
68	181375 368 19 521 0.1 3 30 0 20000 20000 400000000
69	181743 69 19 521 2 3 4 368 816 2816 2132992
70	181812 368 19 521 0.1 3 30 0 20000 20000 400000000
75	182180 157 0 527 0 3.0000088 10 0 1 4 4
76	182337 368 23 527 0.1 3 30 0 23360 23360 545689600
77	182705 370 19 521 0.1 3 30 0 0.02336 0.02336 0.0005456896
78	183075 85 23 527 2.00000576 3.0000088 4 64 102 370 35308
79	183160 85 74 420 2.00021152 2.01151184 4 64 102 332 29000
80	183245 85 74 420 2.00021152 2.01151184 4 64 102 332 29000
83	183330 68 19 521 2 3 4 46 102 352 33328
96	183398 10 9 9 2 2 1 28 28 28 784
101	183408 10 0 0 0 0 1 0 0 0 0
102	183418 10 0 0 0 0 1 0 0 0 0
103	183428 10 0 0 0 0 1 0 0 0 0
104	183438 30 426 426 2.01151184 2.01151184 1 0.01151184 0.01151184 0.01151184 0.0001325224601856
107	183468 22 3 503 2 3 2 0 1 1 1
108	183490 21 426 426 2.01151184 2.01151184 1 0 0 0 0
112	183511 10 0 0 0 0 1 0 0 0 0
115	183521 408 42 566 2.00010576 3.00011552 19 46 84 1330 99484
116	183929 366 34 562 2.00010576 3.00011552 17 46 84 1238 95252
118	184295 153 0 493 0 2.5109072 10 0 0 0 0
119	184448 153 0 493 0 2.5109072 10 0 0 0 0
120	184601 103 52 493 2.00010576 2.5109072 5 0 0 0 0
121	184704 113 52 493 2.00010576 2.5109072 5 512 816 3472 2521856
122	184817 330 52 493 0.1 2.5 25 0 26560 26560 705433600
123	185147 113 52 493 2.00010576 2.5109072 5 512 816 3472 2521856
124	185260 330 52 493 0.1 2.5 25 0 26560 26560 705433600
129	185590 225 0 494 0 2.510916 12 0 1 5 5
130	185815 330 60 494 0.1 2.5 25 0 29120 29120 847974400
131	186145 332 52 493 0.1 2.5 25 0 0.02912 0.02912 0.0008479744
132	186477 110 60 494 2.00011152 2.510916 5 64 102 434 39404
133	186587 133 30 560 2.00010576 3.00011552 6 64 102 536 49808
134	186720 133 30 560 2.00010576 3.00011552 6 64 102 536 49808
137	186853 111 52 493 2.00010576 2.5109072 5 64 102 434 39404
143	186964 131 0 404 0 2.01140304 9 0 0 0 0
144	187095 131 0 404 0 2.01140304 9 0 0 0 0
145	187226 81 50 404 2.00010576 2.01140304 4 0 0 0 0
146	187307 89 50 404 2.00010576 2.01140304 4 512 816 2656 1856000
147	187396 256 50 50 0.1 2 20 0 0 0 0
148	187652 89 50 404 2.00010576 2.01140304 4 512 816 2656 1856000
149	187741 256 50 50 0.1 2 20 0 0 0 0
154	187997 184 0 406 0 2.01141184 10 0 1 4 4
155	188181 256 58 58 0.1 2 20 0 0 0 0
156	188437 256 50 50 0.1 2 20 0 0 0 0
157	188693 89 58 406 2.00011152 2.01141184 4 64 102 332 29000
158	188782 89 31 539 2.00010576 3.0001088 4 64 102 370 35308
159	188871 89 31 539 2.00010576 3.0001088 4 64 102 370 35308
162	188960 87 50 404 2.00010576 2.01140304 4 64 102 332 29000
168	189047 337 0 575 0 3.00012832 19 0 2 6 8
169	189384 348 0 575 0 3.00012832 19 0 1328 3984 3619584
170	189732 233 51 575 2.00010576 3.00012832 10 0 1.28e-05 3.232e-05 3.134976e-10
171	189965 225 51 568 2.00010576 3.00011552 10 512 816 7248 5447424
172	190190 401 51 555 0.1 3 30 0 42880 51040 1905280000
173	190591 225 51 575 2.00010576 3.00012832 10 512 816 7248 5447424
174	190816 401 51 555 0.1 3 30 0 42880 51040 1905280000
179	191217 430 0 577 0 3.00013408 22 0 1 10 10
180	191647 401 59 569 0.1 3 30 0 46720 55520 2260198400
181	192048 405 51 555 0.1 3 30 0 0.04672 0.05552 0.0022601984
182	192453 222 59 577 2.00011152 3.00013408 10 64 102 906 85116
183	192675 156 114 489 2.00031728 2.5109072 7 64 102 638 60212
184	192831 156 114 489 2.00031728 2.5109072 7 64 102 638 60212
187	192987 222 51 575 2.00010576 3.00012832 10 64 102 906 85116
193	193209 152 92 485 2.00021152 2.5107984 7 28 84 476 36848
194	193361 216 81 599 2.00021152 3.00023408 10 46 84 726 55740
200	193577 276 0 621 0 3.0003632 16 0 2 5 7
201	193853 285 0 621 0 3.0003632 16 0 1024 2720 2075648
202	194138 189 204 621 2.00064064 3.0003632 8 0 0.00012912 0.0002552 2.46200576e-08
203	194327 181 204 603 2.00064064 3.00023408 8 352 672 5056 3284992
204	194508 421 204 587 0.1 3 30 0 26880 33600 767692800
205	194929 180 204 621 2.00064064 3.0003632 8 352 672 5056 3284992
206	195109 421 204 587 0.1 3 30 0 26880 33600 767692800
211	195530 337 0 623 0 3.000404 17 0 1 8 8
212	195867 172 204 621 2.00064064 3.0003632 8 51 91 688 60568
213	196039 109 219 483 2.00571344 2.5107984 5 91 91 455 41405
216	196148 172 204 621 2.00064064 3.0003632 8 44 84 632 51328
217	196320 109 219 483 2.00571344 2.5107984 5 84 84 420 35280
220	196429 195 0 486 0 2.5107984 12 0 0 0 0
221	196624 195 0 486 0 2.5107984 12 0 0 0 0
222	196819 145 94 486 2.00021152 2.5107984 7 0 0 0 0
223	196964 159 94 486 2.00021152 2.5107984 7 368 816 4816 3600128
224	197123 330 94 486 0.1 2.5 25 0 40000 40000 1600000000
225	197453 159 94 486 2.00021152 2.5107984 7 368 816 4816 3600128
226	197612 330 94 486 0.1 2.5 25 0 40000 40000 1600000000
231	197942 308 0 487 0 2.5108072 16 0 1 7 7
232	198250 330 96 487 0.1 2.5 25 0 46720 46720 2182758400
233	198580 332 94 486 0.1 2.5 25 0 0.04672 0.04672 0.0021827584
234	198912 155 96 487 2.00021728 2.5108072 7 64 102 638 60212
235	199067 222 75 597 2.00021152 3.00023408 10 64 102 906 85116
236	199289 222 75 597 2.00021152 3.00023408 10 64 102 906 85116
239	199511 157 94 486 2.00021152 2.5107984 7 46 102 602 56252
253	199668 43 87 104 2.00021152 2.00021824 2 28 28 56 1568
254	199711 196 93 644 2.00021152 3.00065712 9 28 84 548 39568
255	199907 238 83 642 2.00021152 3.00065712 11 46 84 772 57856
261	200145 235 0 609 0 3.0002904 14 0 1 2 2
262	200380 239 0 609 0 3.0002904 14 0 672 1344 903168
263	200619 160 205 609 2.00064064 3.0002904 7 0 6.304e-05 0.00012608 7.9480832e-09
264	200779 158 205 596 2.00064064 3.00022736 7 672 672 4704 3161088
265	200937 421 205 588 0.1 3 30 0 26880 33600 767692800
266	201358 158 205 609 2.00064064 3.0002904 7 672 672 4704 3161088
267	201516 421 205 588 0.1 3 30 0 26880 33600 767692800
272	201937 298 0 622 0 3.0003632 15 0 1 7 7
273	202235 151 205 609 2.00064064 3.0002904 7 91 91 637 57967
274	202386 109 218 448 2.00571344 2.5052904 5 91 91 455 41405
277	202495 151 205 609 2.00064064 3.0002904 7 84 84 588 49392
278	202646 109 218 448 2.00571344 2.5052904 5 84 84 420 35280
281	202755 195 0 451 0 2.5052904 12 0 0 0 0
282	202950 195 0 451 0 2.5052904 12 0 0 0 0
283	203145 145 95 451 2.00021152 2.5052904 7 0 0 0 0
284	203290 159 95 451 2.00021152 2.5052904 7 368 816 4816 3600128
285	203449 330 95 451 0.1 2.5 25 0 40000 40000 1600000000
286	203779 159 95 451 2.00021152 2.5052904 7 368 816 4816 3600128
287	203938 330 95 451 0.1 2.5 25 0 40000 40000 1600000000
292	204268 308 0 452 0 2.5052992 16 0 1 7 7
293	204576 330 97 452 0.1 2.5 25 0 46720 46720 2182758400
294	204906 332 95 451 0.1 2.5 25 0 0.04672 0.04672 0.0021827584
295	205238 155 97 452 2.00021728 2.5052992 7 64 102 638 60212
296	205393 222 77 598 2.00021152 3.00023408 10 64 102 906 85116
297	205615 222 77 598 2.00021152 3.00023408 10 64 102 906 85116
300	205837 157 95 451 2.00021152 2.5052904 7 46 102 602 56252
306	205994 92 0 645 0 3.00065712 7 0 0 0 0
307	206086 92 0 645 0 3.00065712 7 0 0 0 0
308	206178 42 605 645 3.00023408 3.00065712 2 0 0 0 0
309	206220 46 605 645 3.00023408 3.00065712 2 368 496 864 381440
310	206266 414 605 605 0.1 3 30 0 0 0 0
311	206680 46 605 645 3.00023408 3.00065712 2 368 496 864 381440
312	206726 414 605 605 0.1 3 30 0 0 0 0
317	207140 104 0 646 0 3.00066288 6 0 1 2 2
318	207244 414 606 606 0.1 3 30 0 0 0 0
319	207658 414 605 605 0.1 3 30 0 0 0 0
320	208072 44 606 646 3.00023984 3.00066288 2 64 64 128 8192
321	208116 22 641 641 3.00065712 3.00065712 1 64 64 64 4096
322	208138 22 641 641 3.00065712 3.00065712 1 64 64 64 4096
325	208160 44 605 645 3.00023408 3.00065712 2 46 62 108 5960
338	208204 22 602 602 3.00023408 3.00023408 1 28 28 28 784
339	208226 43 89 105 2.00021152 2.00021824 2 28 28 56 1568
341	208269 408 46 565 2.00010576 3.00011552 19 46 84 1330 99484
342	208677 366 36 561 2.00010576 3.00011552 17 46 84 1238 95252
344	209043 337 0 576 0 3.00012832 19 0 2 6 8
345	209380 348 0 576 0 3.00012832 19 0 1328 3984 3619584
346	209728 233 54 576 2.00010576 3.00012832 10 0 1.28e-05 3.232e-05 3.134976e-10
347	209961 225 54 567 2.00010576 3.00011552 10 512 816 7248 5447424
348	210186 401 54 556 0.1 3 30 0 42880 51040 1905280000
349	210587 225 54 576 2.00010576 3.00012832 10 512 816 7248 5447424
350	210812 401 54 556 0.1 3 30 0 42880 51040 1905280000
355	211213 430 0 578 0 3.00013408 22 0 1 10 10
356	211643 401 61 570 0.1 3 30 0 46720 55520 2260198400
357	212044 405 54 556 0.1 3 30 0 0.04672 0.05552 0.0022601984
358	212449 222 61 578 2.00011152 3.00013408 10 64 102 906 85116
359	212671 156 115 454 2.00031728 2.5053992 7 64 102 638 60212
360	212827 156 115 454 2.00031728 2.5053992 7 64 102 638 60212
363	212983 222 54 576 2.00010576 3.00012832 10 64 102 906 85116
369	213205 153 0 458 0 2.5053992 10 0 0 0 0
370	213358 153 0 458 0 2.5053992 10 0 0 0 0
371	213511 103 57 458 2.00010576 2.5053992 5 0 0 0 0
372	213614 113 57 458 2.00010576 2.5053992 5 512 816 3472 2521856
373	213727 330 57 458 0.1 2.5 25 0 26560 26560 705433600
374	214057 113 57 458 2.00010576 2.5053992 5 512 816 3472 2521856
375	214170 330 57 458 0.1 2.5 25 0 26560 26560 705433600
380	214500 225 0 459 0 2.505408 12 0 1 5 5
381	214725 330 63 459 0.1 2.5 25 0 29120 29120 847974400
382	215055 332 57 458 0.1 2.5 25 0 0.02912 0.02912 0.0008479744
383	215387 110 63 459 2.00011152 2.505408 5 64 102 434 39404
384	215497 133 32 559 2.00010576 3.00011552 6 64 102 536 49808
385	215630 133 32 559 2.00010576 3.00011552 6 64 102 536 49808
388	215763 111 57 458 2.00010576 2.5053992 5 64 102 434 39404
394	215874 131 0 405 0 2.01140304 9 0 0 0 0
395	216005 131 0 405 0 2.01140304 9 0 0 0 0
396	216136 81 55 405 2.00010576 2.01140304 4 0 0 0 0
397	216217 89 55 405 2.00010576 2.01140304 4 512 816 2656 1856000
398	216306 256 55 55 0.1 2 20 0 0 0 0
399	216562 89 55 405 2.00010576 2.01140304 4 512 816 2656 1856000
400	216651 256 55 55 0.1 2 20 0 0 0 0
405	216907 184 0 407 0 2.01141184 10 0 1 4 4
406	217091 256 62 62 0.1 2 20 0 0 0 0
407	217347 256 55 55 0.1 2 20 0 0 0 0
408	217603 89 62 407 2.00011152 2.01141184 4 64 102 332 29000
409	217692 89 33 541 2.00010576 3.0001088 4 64 102 370 35308
410	217781 89 33 541 2.00010576 3.0001088 4 64 102 370 35308
413	217870 87 55 405 2.00010576 2.01140304 4 64 102 332 29000
419	217957 102 16 520 2 3 6 28 84 408 30944
420	218059 107 85 462 2.00021152 2.505508 5 46 84 344 25400
426	218166 167 0 532 0 3.00000976 12 0 1 1 1
427	218333 169 0 532 0 3.00000976 12 0 496 496 246016
428	218502 112 20 532 2 3.00000976 6 0 9.76e-06 9.76e-06 9.52576e-11
429	218614 108 20 526 2 3 6 368 816 4128 3044864
430	218722 401 20 522 0.1 3 30 0 20000 28160 466585600
431	219123 117 20 532 2 3.00000976 6 368 816 4128 3044864
432	219240 401 20 522 0.1 3 30 0 20000 28160 466585600
437	219641 248 0 535 0 3.00001552 14 0 1 6 6
438	219889 401 24 528 0.1 3 30 0 23360 32160 623129600
439	220290 405 20 522 0.1 3 30 0 0.02336 0.03216 0.0006231296
440	220695 133 24 535 2.00000576 3.00001552 6 64 102 536 49808
441	220828 110 79 461 2.00021152 2.505508 5 64 102 434 39404
442	220938 110 79 461 2.00021152 2.505508 5 64 102 434 39404
445	221048 115 20 532 2 3.00000976 6 46 102 516 47576
458	221163 12 11 11 2 2 1 28 28 28 784
463	221175 10 0 0 0 0 1 0 0 0 0
464	221185 10 0 0 0 0 1 0 0 0 0
465	221195 10 0 0 0 0 1 0 0 0 0
466	221205 30 418 418 2.01143904 2.01143904 1 0.01143904 0.01143904 0.01143904 0.0001308516361216
469	221235 22 4 504 2 3 2 0 1 1 1
470	221257 21 418 418 2.01143904 2.01143904 1 0 0 0 0
474	221278 22 0 502 0 3 2 0 1 1 1
476	221300 69 17 517 2 3 4 28 84 280 21952
477	221369 87 84 423 2.00021152 2.01151184 4 46 84 260 18344
483	221456 115 0 523 0 3 9 0 0 0 0
484	221571 115 0 523 0 3 9 0 0 0 0
485	221686 65 21 523 2 3 4 0 0 0 0
486	221751 73 21 523 2 3 4 368 816 2816 2132992
487	221824 398 21 523 0.1 3 30 0 20000 20000 400000000
488	222222 73 21 523 2 3 4 368 816 2816 2132992
489	222295 398 21 523 0.1 3 30 0 20000 20000 400000000
494	222693 167 0 529 0 3.0000088 10 0 1 4 4
495	222860 398 25 529 0.1 3 30 0 23360 23360 545689600
496	223258 400 21 523 0.1 3 30 0 0.02336 0.02336 0.0005456896
497	223658 89 25 529 2.00000576 3.0000088 4 64 102 370 35308
498	223747 89 78 421 2.00021152 2.01151184 4 64 102 332 29000
499	223836 89 78 421 2.00021152 2.01151184 4 64 102 332 29000
502	223925 72 21 523 2 3 4 46 102 352 33328
515	223997 12 13 13 2 2 1 28 28 28 784
520	224009 10 0 0 0 0 1 0 0 0 0
521	224019 10 0 0 0 0 1 0 0 0 0
522	224029 10 0 0 0 0 1 0 0 0 0
523	224039 30 428 428 2.01151184 2.01151184 1 0.01151184 0.01151184 0.01151184 0.0001325224601856
526	224069 22 5 505 2 3 2 0 1 1 1
527	224091 21 428 428 2.01151184 2.01151184 1 0 0 0 0
531	224112 10 0 0 0 0 1 0 0 0 0
534	224122 88 613 651 3.00033984 3.00076288 4 46 46 184 8464
535	224210 66 611 649 3.00033984 3.00076288 3 46 46 138 6348
537	224276 71 0 638 0 3.00055136 6 0 0 0 0
538	224347 71 0 638 0 3.00055136 6 0 0 0 0
539	224418 21 638 638 3.00055136 3.00055136 1 0 0 0 0
540	224439 23 638 638 3.00055136 3.00055136 1 512 512 512 262144
541	224462 414 638 638 0.1 3 30 0 0 0 0
542	224876 23 638 638 3.00055136 3.00055136 1 512 512 512 262144
543	224899 414 638 638 0.1 3 30 0 0 0 0
548	225313 62 0 639 0 3.00055712 4 0 1 1 1
549	225375 414 639 639 0.1 3 30 0 0 0 0
550	225789 414 638 638 0.1 3 30 0 0 0 0
551	226203 22 639 639 3.00055712 3.00055712 1 64 64 64 4096
552	226225 44 610 648 3.00033984 3.00076288 2 64 64 128 8192
553	226269 44 610 648 3.00033984 3.00076288 2 64 64 128 8192
556	226313 22 638 638 3.00055136 3.00055136 1 64 64 64 4096
562	226335 71 0 615 0 3.00033984 6 0 0 0 0
563	226406 71 0 615 0 3.00033984 6 0 0 0 0
564	226477 21 615 615 3.00033984 3.00033984 1 0 0 0 0
565	226498 23 615 615 3.00033984 3.00033984 1 512 512 512 262144
566	226521 414 615 615 0.1 3 30 0 0 0 0
567	226935 23 615 615 3.00033984 3.00033984 1 512 512 512 262144
568	226958 414 615 615 0.1 3 30 0 0 0 0
573	227372 61 0 617 0 3.0003456 4 0 1 1 1
574	227433 414 617 617 0.1 3 30 0 0 0 0
575	227847 414 615 615 0.1 3 30 0 0 0 0
576	228261 21 617 617 3.0003456 3.0003456 1 64 64 64 4096
581	228282 22 615 615 3.00033984 3.00033984 1 64 64 64 4096
587	228304 92 0 652 0 3.00076288 7 0 0 0 0
588	228396 92 0 652 0 3.00076288 7 0 0 0 0
589	228488 42 616 652 3.00033984 3.00076288 2 0 0 0 0
590	228530 46 616 652 3.00033984 3.00076288 2 512 512 1024 524288
591	228576 414 616 616 0.1 3 30 0 0 0 0
592	228990 46 616 652 3.00033984 3.00076288 2 512 512 1024 524288
593	229036 414 616 616 0.1 3 30 0 0 0 0
598	229450 103 0 653 0 3.00076864 6 0 1 2 2
599	229553 414 618 618 0.1 3 30 0 0 0 0
600	229967 414 616 616 0.1 3 30 0 0 0 0
601	230381 43 618 653 3.0003456 3.00076864 2 64 64 128 8192
602	230424 22 634 634 3.00055136 3.00055136 1 64 64 64 4096
603	230446 22 634 634 3.00055136 3.00055136 1 64 64 64 4096
606	230468 44 616 652 3.00033984 3.00076288 2 64 64 128 8192
613	230512 21 626 626 3.0004456 3.0004456 1 46 46 46 2116
619	230533 50 0 0 0 0 5 0 0 0 0
620	230583 50 0 0 0 0 5 0 0 0 0
630	230633 20 0 0 0 0 2 0 0 0 0
634	230653 21 624 624 3.0004456 3.0004456 1 64 64 64 4096
635	230674 21 624 624 3.0004456 3.0004456 1 64 64 64 4096
656	230695 10 0 0 0 0 1 0 0 0 0
657	230705 10 0 0 0 0 1 0 0 0 0
658	230715 10 0 0 0 0 1 0 0 0 0
659	230725 21 630 630 3.0004456 3.0004456 1 28 28 28 784
660	230746 21 627 627 3.0004456 3.0004456 1 46 46 46 2116
666	230767 70 0 631 0 3.0004456 6 0 0 0 0
667	230837 70 0 631 0 3.0004456 6 0 0 0 0
668	230907 20 631 631 3.0004456 3.0004456 1 0 0 0 0
669	230927 22 631 631 3.0004456 3.0004456 1 368 368 368 135424
670	230949 414 631 631 0.1 3 30 0 0 0 0
671	231363 22 631 631 3.0004456 3.0004456 1 368 368 368 135424
672	231385 414 631 631 0.1 3 30 0 0 0 0
677	231799 61 0 632 0 3.00045136 4 0 1 1 1
678	231860 414 632 632 0.1 3 30 0 0 0 0
679	232274 414 631 631 0.1 3 30 0 0 0 0
680	232688 22 632 632 3.00045136 3.00045136 1 64 64 64 4096
681	232710 21 625 625 3.0004456 3.0004456 1 64 64 64 4096
682	232731 21 625 625 3.0004456 3.0004456 1 64 64 64 4096
685	232752 21 631 631 3.0004456 3.0004456 1 46 46 46 2116
699	232773 21 629 629 3.0004456 3.0004456 1 28 28 28 784
703	232794 10 0 0 0 0 1 0 0 0 0
704	232804 10 0 0 0 0 1 0 0 0 0
705	232814 10 0 0 0 0 1 0 0 0 0
709	232824 10 1 1 0 0 1 2 2 2 4
738	232834 12 507 507 3 3 1 3 3 3 9
740	232846 15 507 507 3 3 1 7504 7504 7504 56310016
741	232861 15 507 507 3 3 1 7504 7504 7504 56310016
743	232876 12 507 507 3 3 1 0 0 0 0
754	232888 12 507 507 3 3 1 0 0 0 0
767	232900 12 508 508 3 3 1 3 3 3 9
769	232912 15 508 508 3 3 1 7504 7504 7504 56310016
770	232927 15 508 508 3 3 1 7504 7504 7504 56310016
772	232942 12 508 508 3 3 1 0 0 0 0
783	232954 12 508 508 3 3 1 0 0 0 0
