version 3
run General-0-20260423-11:10:05-4927
attr configname General
attr datetime 20260423-11:10:05
attr datetimef 20260423-111005
attr experiment General
attr inifile omnetpp.ini
attr iterationvars ""
attr iterationvarsd ""
attr iterationvarsf ""
attr measurement ""
attr network FourLAN
attr processid 4927
attr repetition 0
attr replication #0
attr resultdir results
attr runnumber 0
attr seedset 0
config network FourLAN
config sim-time-limit 40s
config *.configurator.typename Ipv4NetworkConfigurator
config *.configurator.assignAddresses true
config *.configurator.addStaticRoutes true
config *.configurator.addDefaultRoutes true
config *.host*.arp.typename GlobalArp
config *.server.arp.typename GlobalArp
config *.router*.arp.typename GlobalArp
config *.server.numApps 1
config *.server.app[0].typename TcpGenericServerApp
config *.server.app[0].localAddress "\"\""
config *.server.app[0].localPort 80
config *.server.app[0].replyDelay 0s
config *.host1.numApps 2
config *.host1.app[0].typename PingApp
config *.host1.app[0].destAddr "\"host3\""
config *.host1.app[0].startTime 2s
config *.host1.app[0].sendInterval 0.5s
config *.host1.app[0].count 10
config *.host1.app[1].typename TcpBasicClientApp
config *.host1.app[1].connectAddress "\"server\""
config *.host1.app[1].connectPort 80
config *.host1.app[1].startTime 3s
config *.host1.app[1].numRequestsPerSession 5
config *.host1.app[1].requestLength 200B
config *.host1.app[1].replyLength 1024B
config *.host1.app[1].thinkTime 0.5s
config *.host1.app[1].idleInterval 0.5s
config *.host2.numApps 2
config *.host2.app[0].typename PingApp
config *.host2.app[0].destAddr "\"host4\""
config *.host2.app[0].startTime 2s
config *.host2.app[0].sendInterval 1s
config *.host2.app[0].count 20
config *.host2.app[1].typename TcpBasicClientApp
config *.host2.app[1].connectAddress "\"server\""
config *.host2.app[1].connectPort 80
config *.host2.app[1].startTime 3.5s
config *.host2.app[1].numRequestsPerSession 10
config *.host2.app[1].requestLength 200B
config *.host2.app[1].replyLength 1024B
config *.host2.app[1].thinkTime 0.5s
config *.host2.app[1].idleInterval 0.5s
config *.host3.numApps 2
config *.host3.app[0].typename PingApp
config *.host3.app[0].destAddr "\"host1\""
config *.host3.app[0].startTime 2s
config *.host3.app[0].sendInterval 1s
config *.host3.app[0].count 20
config *.host3.app[1].typename TcpBasicClientApp
config *.host3.app[1].connectAddress "\"server\""
config *.host3.app[1].connectPort 80
config *.host3.app[1].startTime 3s
config *.host3.app[1].numRequestsPerSession 10
config *.host3.app[1].requestLength 200B
config *.host3.app[1].replyLength 2048B
config *.host3.app[1].thinkTime 0.5s
config *.host3.app[1].idleInterval 0.5s
config *.host4.numApps 2
config *.host4.app[0].typename PingApp
config *.host4.app[0].destAddr "\"host2\""
config *.host4.app[0].startTime 2s
config *.host4.app[0].sendInterval 1s
config *.host4.app[0].count 20
config *.host4.app[1].typename TcpBasicClientApp
config *.host4.app[1].connectAddress "\"server\""
config *.host4.app[1].connectPort 80
config *.host4.app[1].startTime 3.5s
config *.host4.app[1].numRequestsPerSession 10
config *.host4.app[1].requestLength 200B
config *.host4.app[1].replyLength 1024B
config *.host4.app[1].thinkTime 0.5s
config *.host4.app[1].idleInterval 0.5s
config *.visualizer.*.displayPacketName true
config *.visualizer.*.displayPackets true
config *.visualizer.*.packetFilter "\"*\""
config *.visualizer.*.fadeOutMode "\"animationTime\""
config *.visualizer.*.fadeOutTime 2s

vector 0 FourLAN.host1.ethernet encapPk:vector(packetBytes) ETV
attr interpolationmode none
attr recordingmode vector(packetBytes)
attr source encapPk
attr title "packets encapsulated, packetBytes"
vector 1 FourLAN.host1.ethernet decapPk:vector(packetBytes) ETV
attr interpolationmode none
attr recordingmode vector(packetBytes)
attr source decapPk
attr title "packets decapsulated, packetBytes"
vector 2 FourLAN.host1.ethernet pauseSent:vector ETV
attr recordingmode vector
attr title "pause sent"
vector 3 FourLAN.host1.lo[0].lo rcvdPkFromHl:vector(packetBytes) ETV
attr interpolationmode none
attr recordingmode vector(packetBytes)
attr source packetReceivedFromUpper
attr title "packets received from higher layer, packetBytes"
vector 4 FourLAN.host1.lo[0].lo passedUpPk:vector(packetBytes) ETV
attr interpolationmode none
attr recordingmode vector(packetBytes)
attr source packetSentToUpper
attr title "packets passed to higher layer, packetBytes"
vector 5 FourLAN.host1.lo[0] packetDropInterfaceDown:vector(packetBytes) ETV
attr interpolationmode none
attr recordingmode vector(packetBytes)
attr source packetDropReasonIsInterfaceDown(packetDropped)
attr title "packet drops: interface down, packetBytes"
vector 6 FourLAN.host1.lo[0] packetDropNoCarrier:vector(packetBytes) ETV
attr interpolationmode none
attr recordingmode vector(packetBytes)
attr source packetDropReasonIsNoCarrier(packetDropped)
attr title "packet drops: no carrier, packetBytes"
vector 7 FourLAN.host1.eth[0].queue queueLength:vector ETV
attr autoWarmupFilter false
attr interpolationmode sample-hold
attr recordingmode vector
attr source "warmup(atomic(constant0(packetPushEnded) + count(packetPushStarted) - count(packetPulled) - count(packetRemoved) - count(packetDropped)))"
attr title "queue length"
attr unit pk
vector 8 FourLAN.host1.eth[0].queue queueBitLength:vector ETV
attr autoWarmupFilter false
attr interpolationmode sample-hold
attr recordingmode vector
attr source "warmup(atomic(constant0(packetPushEnded) + sum(packetLength(packetPushStarted)) - sum(packetLength(packetPulled)) - sum(packetLength(packetRemoved)) - sum(packetLength(packetDropped))))"
attr title "queue bit length"
attr unit b
vector 9 FourLAN.host1.eth[0].queue queueingTime:vector ETV
attr interpolationmode none
attr recordingmode vector
attr source queueingTime(packetPulled)
attr title "queueing times"
attr unit s
vector 10 FourLAN.host1.eth[0].queue incomingPacketLengths:vector ETV
attr interpolationmode none
attr recordingmode vector
attr source packetLength(packetPushStarted)
attr title "incoming packet lengths"
attr unit b
vector 11 FourLAN.host1.eth[0].queue incomingDataRate:vector ETV
attr interpolationmode linear
attr recordingmode vector
attr source throughput(packetPushStarted)
attr title "incoming datarate"
attr unit bps
vector 12 FourLAN.host1.eth[0].queue outgoingPacketLengths:vector ETV
attr interpolationmode none
attr recordingmode vector
attr source packetLength(packetPulled)
attr title "outgoing packet lengths"
attr unit b
vector 13 FourLAN.host1.eth[0].queue outgoingDataRate:vector ETV
attr interpolationmode linear
attr recordingmode vector
attr source throughput(packetPulled)
attr title "outgoing datarate"
attr unit bps
vector 14 FourLAN.host1.eth[0].queue droppedPacketLengthsQueueOverflow:vector ETV
attr interpolationmode none
attr recordingmode vector
attr source packetLength(packetDropReasonIsQueueOverflow(packetDropped))
attr title "dropped packet lengths: queue overflow"
attr unit b
vector 15 FourLAN.host1.eth[0].queue flowQueueingTime:vector ETV
attr interpolationmode none
attr recordingmode vector
attr source queueingTime(demuxFlow(packetPulled))
attr title "flow queueing times"
attr unit s
vector 16 FourLAN.host1.eth[0].queue flowIncomingDataRate:vector ETV
attr interpolationmode linear
attr recordingmode vector
attr source throughput(flowPacketLength(demuxFlow(packetPushStarted)))
attr title "flow specific incoming data rate"
attr unit bps
vector 17 FourLAN.host1.eth[0].queue flowOutgoingDataRate:vector ETV
attr interpolationmode linear
attr recordingmode vector
attr source throughput(flowPacketLength(demuxFlow(packetPulled)))
attr title "flow specific outgoing data rate"
attr unit bps
vector 18 FourLAN.host1.eth[0].mac transmitting:vector ETV
attr interpolationmode sample-hold
attr recordingmode vector
attr source "count(transmissionStarted) - count(transmissionEnded)"
attr title "transmitting state"
attr type int
vector 19 FourLAN.host1.eth[0].mac throughput:vector ETV
attr interpolationmode linear
attr recordingmode vector
attr source throughput(transmissionEnded)
attr title throughput
attr unit bps
vector 20 FourLAN.host1.eth[0].mac utilization:vector ETV
attr interpolationmode linear
attr recordingmode vector
attr source "100 * utilization(count(transmissionStarted) - count(transmissionEnded))"
attr title utilization
attr unit %
vector 21 FourLAN.host1.eth[0].mac txPk:vector(packetBytes) ETV
attr interpolationmode none
attr recordingmode vector(packetBytes)
attr source packetSentToLower
attr title "packets transmitted, packetBytes"
vector 22 FourLAN.host1.eth[0].mac rxPkOk:vector(packetBytes) ETV
attr interpolationmode none
attr recordingmode vector(packetBytes)
attr source rxPkOk
attr title "packets received OK, packetBytes"
vector 23 FourLAN.host1.eth[0].mac passedUpPk:vector(packetBytes) ETV
attr interpolationmode none
attr recordingmode vector(packetBytes)
attr source packetSentToUpper
attr title "packets passed to higher layer, packetBytes"
vector 24 FourLAN.host1.eth[0].mac txPausePkUnits:vector ETV
attr interpolationmode none
attr recordingmode vector
attr title "pause units sent"
vector 25 FourLAN.host1.eth[0].mac rxPausePkUnits:vector ETV
attr interpolationmode none
attr recordingmode vector
attr title "pause units received"
vector 26 FourLAN.host1.eth[0].mac packetReceivedFromUpper:vector(packetBytes) ETV
attr interpolationmode none
attr recordingmode vector(packetBytes)
attr source packetReceivedFromUpper
attr title "packet bytes from higher layer, packetBytes"
vector 27 FourLAN.host1.eth[0].mac packetDropIncorrectlyReceived:vector(packetBytes) ETV
attr interpolationmode none
attr recordingmode vector(packetBytes)
attr source packetDropReasonIsIncorrectlyReceived(packetDropped)
attr title "packet drop: incorrectly received, packetBytes"
vector 28 FourLAN.host1.eth[0].mac packetDropInterfaceDown:vector(packetBytes) ETV
attr interpolationmode none
attr recordingmode vector(packetBytes)
attr source packetDropReasonIsInterfaceDown(packetDropped)
attr title "packet drop: interface down, packetBytes"
vector 29 FourLAN.host1.eth[0].mac packetDropNotAddressedToUs:vector(packetBytes) ETV
attr interpolationmode none
attr recordingmode vector(packetBytes)
attr source packetDropReasonIsNotAddressedToUs(packetDropped)
attr title "packet drop: not addressed to us, packetBytes"
vector 30 FourLAN.host1.eth[0] packetDropInterfaceDown:vector(packetBytes) ETV
attr interpolationmode none
attr recordingmode vector(packetBytes)
attr source packetDropReasonIsInterfaceDown(packetDropped)
attr title "packet drops: interface down, packetBytes"
vector 31 FourLAN.host1.eth[0] packetDropNoCarrier:vector(packetBytes) ETV
attr interpolationmode none
attr recordingmode vector(packetBytes)
attr source packetDropReasonIsNoCarrier(packetDropped)
attr title "packet drops: no carrier, packetBytes"
vector 32 FourLAN.host1.ipv4.ip packetDropAddressResolutionFailed:vector(packetBytes) ETV
attr interpolationmode none
attr recordingmode vector(packetBytes)
attr source packetDropReasonIsAddressResolutionFailed(packetDropped)
attr title "packet drop: address resolution failed, packetBytes"
vector 33 FourLAN.host1.ipv4.ip packetDropHopLimitReached:vector(packetBytes) ETV
attr interpolationmode none
attr recordingmode vector(packetBytes)
attr source packetDropReasonIsHopLimitReached(packetDropped)
attr title "packet drop: hop limit reached, packetBytes"
vector 34 FourLAN.host1.ipv4.ip packetDropForwardingDisabled:vector(packetBytes) ETV
attr interpolationmode none
attr recordingmode vector(packetBytes)
attr source packetDropReasonIsForwardingDisabled(packetDropped)
attr title "packet drop: forwarding disabled, packetBytes"
vector 35 FourLAN.host1.ipv4.ip packetDropLifetimeExpired:vector(packetBytes) ETV
attr interpolationmode none
attr recordingmode vector(packetBytes)
attr source packetDropReasonIsLifetimeExpired(packetDropped)
attr title "packet drop: lifetime expired, packetBytes"
vector 36 FourLAN.host1.ipv4.ip packetDropNoInterfaceFound:vector(packetBytes) ETV
attr interpolationmode none
attr recordingmode vector(packetBytes)
attr source packetDropReasonIsNoInterfaceFound(packetDropped)
attr title "packet drop: no interface found, packetBytes"
vector 37 FourLAN.host1.ipv4.ip packetDropNoRouteFound:vector(packetBytes) ETV
attr interpolationmode none
attr recordingmode vector(packetBytes)
attr source packetDropReasonIsNoRouteFound(packetDropped)
attr title "packet drop: no route found, packetBytes"
vector 38 FourLAN.host1.ipv4.ip packetDropUndefined:vector(packetBytes) ETV
attr interpolationmode none
attr recordingmode vector(packetBytes)
attr source packetDropReasonIsUndefined(packetDropped)
attr title "packet drop: undefined, packetBytes"
vector 39 FourLAN.host1.ipv4.arp arpRequestSent:vector(packetBytes) ETV
attr recordingmode vector(packetBytes)
attr source arpRequestSent
attr title "ARP request sent, packetBytes"
vector 40 FourLAN.host1.ipv4.arp arpReplySent:vector(packetBytes) ETV
attr recordingmode vector(packetBytes)
attr source arpReplySent
attr title "ARP replies sent, packetBytes"
vector 41 FourLAN.host1.udp packetSent:vector(packetBytes) ETV
attr interpolationmode none
attr recordingmode vector(packetBytes)
attr source packetSent
attr title "packets sent, packetBytes"
vector 42 FourLAN.host1.udp outgoingDataRate:vector ETV
attr interpolationmode linear
attr recordingmode vector
attr source throughput(packetSent)
attr title "outgoing datarate"
attr unit bps
vector 43 FourLAN.host1.udp packetReceived:vector(packetBytes) ETV
attr interpolationmode none
attr recordingmode vector(packetBytes)
attr source packetReceived
attr title "packets received, packetBytes"
vector 44 FourLAN.host1.udp passedUpPk:vector(count) ETV
attr interpolationmode none
attr recordingmode vector(count)
attr source packetSentToUpper
attr title "packets passed up, count"
vector 45 FourLAN.host1.udp droppedPkWrongPort:vector(count) ETV
attr interpolationmode none
attr recordingmode vector(count)
attr source packetDropReasonIsNoPortFound(packetDropped)
attr title "packets dropped (wrong port), count"
vector 46 FourLAN.host1.udp droppedPkBadChecksum:vector(count) ETV
attr interpolationmode none
attr recordingmode vector(count)
attr source packetDropReasonIsIncorrectlyReceived(packetDropped)
attr title "packets dropped (checksum error), count"
vector 47 FourLAN.host1.app[0] rtt:vector ETV
attr interpolationmode none
attr recordingmode vector
attr title "ping round-trip time"
attr unit s
vector 48 FourLAN.host1.app[0] numLost:vector ETV
attr interpolationmode none
attr recordingmode vector
attr title "pings lost"
vector 49 FourLAN.host1.app[0] numOutOfOrderArrivals:vector ETV
attr interpolationmode none
attr recordingmode vector
attr title "ping out-of-order arrivals"
vector 50 FourLAN.host1.app[0] pingTxSeq:vector ETV
attr interpolationmode none
attr recordingmode vector
attr title "ping tx seq"
vector 51 FourLAN.host1.app[0] pingRxSeq:vector ETV
attr interpolationmode none
attr recordingmode vector
attr title "ping rx seq"
vector 52 FourLAN.host1.app[1] packetReceived:vector(packetBytes) ETV
attr interpolationmode none
attr recordingmode vector(packetBytes)
attr source packetReceived
attr title "packets received, packetBytes"
vector 53 FourLAN.host1.app[1] packetSent:vector(packetBytes) ETV
attr interpolationmode none
attr recordingmode vector(packetBytes)
attr source packetSent
attr title "packets sent, packetBytes"
vector 54 FourLAN.host1.app[1] endToEndDelay:vector ETV
attr interpolationmode none
attr recordingmode vector
attr source dataAge(packetReceived)
attr title "end-to-end delay"
attr unit s
vector 55 FourLAN.host1.app[1] numActiveSessions:vector ETV
attr autoWarmupFilter false
attr interpolationmode sample-hold
attr recordingmode vector
attr source warmup(sum(connect))
attr title "number of active sessions"
vector 56 FourLAN.host1.app[1] throughput:vector ETV
attr recordingmode vector
attr source throughput(packetReceived)
attr title "throughput of received data"
attr unit bps
vector 57 FourLAN.host2.ethernet encapPk:vector(packetBytes) ETV
attr interpolationmode none
attr recordingmode vector(packetBytes)
attr source encapPk
attr title "packets encapsulated, packetBytes"
vector 58 FourLAN.host2.ethernet decapPk:vector(packetBytes) ETV
attr interpolationmode none
attr recordingmode vector(packetBytes)
attr source decapPk
attr title "packets decapsulated, packetBytes"
vector 59 FourLAN.host2.ethernet pauseSent:vector ETV
attr recordingmode vector
attr title "pause sent"
vector 60 FourLAN.host2.lo[0].lo rcvdPkFromHl:vector(packetBytes) ETV
attr interpolationmode none
attr recordingmode vector(packetBytes)
attr source packetReceivedFromUpper
attr title "packets received from higher layer, packetBytes"
vector 61 FourLAN.host2.lo[0].lo passedUpPk:vector(packetBytes) ETV
attr interpolationmode none
attr recordingmode vector(packetBytes)
attr source packetSentToUpper
attr title "packets passed to higher layer, packetBytes"
vector 62 FourLAN.host2.lo[0] packetDropInterfaceDown:vector(packetBytes) ETV
attr interpolationmode none
attr recordingmode vector(packetBytes)
attr source packetDropReasonIsInterfaceDown(packetDropped)
attr title "packet drops: interface down, packetBytes"
vector 63 FourLAN.host2.lo[0] packetDropNoCarrier:vector(packetBytes) ETV
attr interpolationmode none
attr recordingmode vector(packetBytes)
attr source packetDropReasonIsNoCarrier(packetDropped)
attr title "packet drops: no carrier, packetBytes"
vector 64 FourLAN.host2.eth[0].queue queueLength:vector ETV
attr autoWarmupFilter false
attr interpolationmode sample-hold
attr recordingmode vector
attr source "warmup(atomic(constant0(packetPushEnded) + count(packetPushStarted) - count(packetPulled) - count(packetRemoved) - count(packetDropped)))"
attr title "queue length"
attr unit pk
vector 65 FourLAN.host2.eth[0].queue queueBitLength:vector ETV
attr autoWarmupFilter false
attr interpolationmode sample-hold
attr recordingmode vector
attr source "warmup(atomic(constant0(packetPushEnded) + sum(packetLength(packetPushStarted)) - sum(packetLength(packetPulled)) - sum(packetLength(packetRemoved)) - sum(packetLength(packetDropped))))"
attr title "queue bit length"
attr unit b
vector 66 FourLAN.host2.eth[0].queue queueingTime:vector ETV
attr interpolationmode none
attr recordingmode vector
attr source queueingTime(packetPulled)
attr title "queueing times"
attr unit s
vector 67 FourLAN.host2.eth[0].queue incomingPacketLengths:vector ETV
attr interpolationmode none
attr recordingmode vector
attr source packetLength(packetPushStarted)
attr title "incoming packet lengths"
attr unit b
vector 68 FourLAN.host2.eth[0].queue incomingDataRate:vector ETV
attr interpolationmode linear
attr recordingmode vector
attr source throughput(packetPushStarted)
attr title "incoming datarate"
attr unit bps
vector 69 FourLAN.host2.eth[0].queue outgoingPacketLengths:vector ETV
attr interpolationmode none
attr recordingmode vector
attr source packetLength(packetPulled)
attr title "outgoing packet lengths"
attr unit b
vector 70 FourLAN.host2.eth[0].queue outgoingDataRate:vector ETV
attr interpolationmode linear
attr recordingmode vector
attr source throughput(packetPulled)
attr title "outgoing datarate"
attr unit bps
vector 71 FourLAN.host2.eth[0].queue droppedPacketLengthsQueueOverflow:vector ETV
attr interpolationmode none
attr recordingmode vector
attr source packetLength(packetDropReasonIsQueueOverflow(packetDropped))
attr title "dropped packet lengths: queue overflow"
attr unit b
vector 72 FourLAN.host2.eth[0].queue flowQueueingTime:vector ETV
attr interpolationmode none
attr recordingmode vector
attr source queueingTime(demuxFlow(packetPulled))
attr title "flow queueing times"
attr unit s
vector 73 FourLAN.host2.eth[0].queue flowIncomingDataRate:vector ETV
attr interpolationmode linear
attr recordingmode vector
attr source throughput(flowPacketLength(demuxFlow(packetPushStarted)))
attr title "flow specific incoming data rate"
attr unit bps
vector 74 FourLAN.host2.eth[0].queue flowOutgoingDataRate:vector ETV
attr interpolationmode linear
attr recordingmode vector
attr source throughput(flowPacketLength(demuxFlow(packetPulled)))
attr title "flow specific outgoing data rate"
attr unit bps
vector 75 FourLAN.host2.eth[0].mac transmitting:vector ETV
attr interpolationmode sample-hold
attr recordingmode vector
attr source "count(transmissionStarted) - count(transmissionEnded)"
attr title "transmitting state"
attr type int
vector 76 FourLAN.host2.eth[0].mac throughput:vector ETV
attr interpolationmode linear
attr recordingmode vector
attr source throughput(transmissionEnded)
attr title throughput
attr unit bps
vector 77 FourLAN.host2.eth[0].mac utilization:vector ETV
attr interpolationmode linear
attr recordingmode vector
attr source "100 * utilization(count(transmissionStarted) - count(transmissionEnded))"
attr title utilization
attr unit %
vector 78 FourLAN.host2.eth[0].mac txPk:vector(packetBytes) ETV
attr interpolationmode none
attr recordingmode vector(packetBytes)
attr source packetSentToLower
attr title "packets transmitted, packetBytes"
vector 79 FourLAN.host2.eth[0].mac rxPkOk:vector(packetBytes) ETV
attr interpolationmode none
attr recordingmode vector(packetBytes)
attr source rxPkOk
attr title "packets received OK, packetBytes"
vector 80 FourLAN.host2.eth[0].mac passedUpPk:vector(packetBytes) ETV
attr interpolationmode none
attr recordingmode vector(packetBytes)
attr source packetSentToUpper
attr title "packets passed to higher layer, packetBytes"
vector 81 FourLAN.host2.eth[0].mac txPausePkUnits:vector ETV
attr interpolationmode none
attr recordingmode vector
attr title "pause units sent"
vector 82 FourLAN.host2.eth[0].mac rxPausePkUnits:vector ETV
attr interpolationmode none
attr recordingmode vector
attr title "pause units received"
vector 83 FourLAN.host2.eth[0].mac packetReceivedFromUpper:vector(packetBytes) ETV
attr interpolationmode none
attr recordingmode vector(packetBytes)
attr source packetReceivedFromUpper
attr title "packet bytes from higher layer, packetBytes"
vector 84 FourLAN.host2.eth[0].mac packetDropIncorrectlyReceived:vector(packetBytes) ETV
attr interpolationmode none
attr recordingmode vector(packetBytes)
attr source packetDropReasonIsIncorrectlyReceived(packetDropped)
attr title "packet drop: incorrectly received, packetBytes"
vector 85 FourLAN.host2.eth[0].mac packetDropInterfaceDown:vector(packetBytes) ETV
attr interpolationmode none
attr recordingmode vector(packetBytes)
attr source packetDropReasonIsInterfaceDown(packetDropped)
attr title "packet drop: interface down, packetBytes"
vector 86 FourLAN.host2.eth[0].mac packetDropNotAddressedToUs:vector(packetBytes) ETV
attr interpolationmode none
attr recordingmode vector(packetBytes)
attr source packetDropReasonIsNotAddressedToUs(packetDropped)
attr title "packet drop: not addressed to us, packetBytes"
vector 87 FourLAN.host2.eth[0] packetDropInterfaceDown:vector(packetBytes) ETV
attr interpolationmode none
attr recordingmode vector(packetBytes)
attr source packetDropReasonIsInterfaceDown(packetDropped)
attr title "packet drops: interface down, packetBytes"
vector 88 FourLAN.host2.eth[0] packetDropNoCarrier:vector(packetBytes) ETV
attr interpolationmode none
attr recordingmode vector(packetBytes)
attr source packetDropReasonIsNoCarrier(packetDropped)
attr title "packet drops: no carrier, packetBytes"
vector 89 FourLAN.host2.ipv4.ip packetDropAddressResolutionFailed:vector(packetBytes) ETV
attr interpolationmode none
attr recordingmode vector(packetBytes)
attr source packetDropReasonIsAddressResolutionFailed(packetDropped)
attr title "packet drop: address resolution failed, packetBytes"
vector 90 FourLAN.host2.ipv4.ip packetDropHopLimitReached:vector(packetBytes) ETV
attr interpolationmode none
attr recordingmode vector(packetBytes)
attr source packetDropReasonIsHopLimitReached(packetDropped)
attr title "packet drop: hop limit reached, packetBytes"
vector 91 FourLAN.host2.ipv4.ip packetDropForwardingDisabled:vector(packetBytes) ETV
attr interpolationmode none
attr recordingmode vector(packetBytes)
attr source packetDropReasonIsForwardingDisabled(packetDropped)
attr title "packet drop: forwarding disabled, packetBytes"
vector 92 FourLAN.host2.ipv4.ip packetDropLifetimeExpired:vector(packetBytes) ETV
attr interpolationmode none
attr recordingmode vector(packetBytes)
attr source packetDropReasonIsLifetimeExpired(packetDropped)
attr title "packet drop: lifetime expired, packetBytes"
vector 93 FourLAN.host2.ipv4.ip packetDropNoInterfaceFound:vector(packetBytes) ETV
attr interpolationmode none
attr recordingmode vector(packetBytes)
attr source packetDropReasonIsNoInterfaceFound(packetDropped)
attr title "packet drop: no interface found, packetBytes"
vector 94 FourLAN.host2.ipv4.ip packetDropNoRouteFound:vector(packetBytes) ETV
attr interpolationmode none
attr recordingmode vector(packetBytes)
attr source packetDropReasonIsNoRouteFound(packetDropped)
attr title "packet drop: no route found, packetBytes"
vector 95 FourLAN.host2.ipv4.ip packetDropUndefined:vector(packetBytes) ETV
attr interpolationmode none
attr recordingmode vector(packetBytes)
attr source packetDropReasonIsUndefined(packetDropped)
attr title "packet drop: undefined, packetBytes"
vector 96 FourLAN.host2.ipv4.arp arpRequestSent:vector(packetBytes) ETV
attr recordingmode vector(packetBytes)
attr source arpRequestSent
attr title "ARP request sent, packetBytes"
vector 97 FourLAN.host2.ipv4.arp arpReplySent:vector(packetBytes) ETV
attr recordingmode vector(packetBytes)
attr source arpReplySent
attr title "ARP replies sent, packetBytes"
vector 98 FourLAN.host2.udp packetSent:vector(packetBytes) ETV
attr interpolationmode none
attr recordingmode vector(packetBytes)
attr source packetSent
attr title "packets sent, packetBytes"
vector 99 FourLAN.host2.udp outgoingDataRate:vector ETV
attr interpolationmode linear
attr recordingmode vector
attr source throughput(packetSent)
attr title "outgoing datarate"
attr unit bps
vector 100 FourLAN.host2.udp packetReceived:vector(packetBytes) ETV
attr interpolationmode none
attr recordingmode vector(packetBytes)
attr source packetReceived
attr title "packets received, packetBytes"
vector 101 FourLAN.host2.udp passedUpPk:vector(count) ETV
attr interpolationmode none
attr recordingmode vector(count)
attr source packetSentToUpper
attr title "packets passed up, count"
vector 102 FourLAN.host2.udp droppedPkWrongPort:vector(count) ETV
attr interpolationmode none
attr recordingmode vector(count)
attr source packetDropReasonIsNoPortFound(packetDropped)
attr title "packets dropped (wrong port), count"
vector 103 FourLAN.host2.udp droppedPkBadChecksum:vector(count) ETV
attr interpolationmode none
attr recordingmode vector(count)
attr source packetDropReasonIsIncorrectlyReceived(packetDropped)
attr title "packets dropped (checksum error), count"
vector 104 FourLAN.host2.app[0] rtt:vector ETV
attr interpolationmode none
attr recordingmode vector
attr title "ping round-trip time"
attr unit s
vector 105 FourLAN.host2.app[0] numLost:vector ETV
attr interpolationmode none
attr recordingmode vector
attr title "pings lost"
vector 106 FourLAN.host2.app[0] numOutOfOrderArrivals:vector ETV
attr interpolationmode none
attr recordingmode vector
attr title "ping out-of-order arrivals"
vector 107 FourLAN.host2.app[0] pingTxSeq:vector ETV
attr interpolationmode none
attr recordingmode vector
attr title "ping tx seq"
vector 108 FourLAN.host2.app[0] pingRxSeq:vector ETV
attr interpolationmode none
attr recordingmode vector
attr title "ping rx seq"
vector 109 FourLAN.host2.app[1] packetReceived:vector(packetBytes) ETV
attr interpolationmode none
attr recordingmode vector(packetBytes)
attr source packetReceived
attr title "packets received, packetBytes"
vector 110 FourLAN.host2.app[1] packetSent:vector(packetBytes) ETV
attr interpolationmode none
attr recordingmode vector(packetBytes)
attr source packetSent
attr title "packets sent, packetBytes"
vector 111 FourLAN.host2.app[1] endToEndDelay:vector ETV
attr interpolationmode none
attr recordingmode vector
attr source dataAge(packetReceived)
attr title "end-to-end delay"
attr unit s
vector 112 FourLAN.host2.app[1] numActiveSessions:vector ETV
attr autoWarmupFilter false
attr interpolationmode sample-hold
attr recordingmode vector
attr source warmup(sum(connect))
attr title "number of active sessions"
vector 113 FourLAN.host2.app[1] throughput:vector ETV
attr recordingmode vector
attr source throughput(packetReceived)
attr title "throughput of received data"
attr unit bps
vector 114 FourLAN.switch1.bridging packetDropped:vector(packetBytes) ETV
attr interpolationmode none
attr recordingmode vector(packetBytes)
attr title "packets dropped, packetBytes"
vector 115 FourLAN.switch1.ethernet encapPk:vector(packetBytes) ETV
attr interpolationmode none
attr recordingmode vector(packetBytes)
attr source encapPk
attr title "packets encapsulated, packetBytes"
vector 116 FourLAN.switch1.ethernet decapPk:vector(packetBytes) ETV
attr interpolationmode none
attr recordingmode vector(packetBytes)
attr source decapPk
attr title "packets decapsulated, packetBytes"
vector 117 FourLAN.switch1.ethernet pauseSent:vector ETV
attr recordingmode vector
attr title "pause sent"
vector 118 FourLAN.switch1.eth[0].queue queueLength:vector ETV
attr autoWarmupFilter false
attr interpolationmode sample-hold
attr recordingmode vector
attr source "warmup(atomic(constant0(packetPushEnded) + count(packetPushStarted) - count(packetPulled) - count(packetRemoved) - count(packetDropped)))"
attr title "queue length"
attr unit pk
vector 119 FourLAN.switch1.eth[0].queue queueBitLength:vector ETV
attr autoWarmupFilter false
attr interpolationmode sample-hold
attr recordingmode vector
attr source "warmup(atomic(constant0(packetPushEnded) + sum(packetLength(packetPushStarted)) - sum(packetLength(packetPulled)) - sum(packetLength(packetRemoved)) - sum(packetLength(packetDropped))))"
attr title "queue bit length"
attr unit b
vector 120 FourLAN.switch1.eth[0].queue queueingTime:vector ETV
attr interpolationmode none
attr recordingmode vector
attr source queueingTime(packetPulled)
attr title "queueing times"
attr unit s
vector 121 FourLAN.switch1.eth[0].queue incomingPacketLengths:vector ETV
attr interpolationmode none
attr recordingmode vector
attr source packetLength(packetPushStarted)
attr title "incoming packet lengths"
attr unit b
vector 122 FourLAN.switch1.eth[0].queue incomingDataRate:vector ETV
attr interpolationmode linear
attr recordingmode vector
attr source throughput(packetPushStarted)
attr title "incoming datarate"
attr unit bps
vector 123 FourLAN.switch1.eth[0].queue outgoingPacketLengths:vector ETV
attr interpolationmode none
attr recordingmode vector
attr source packetLength(packetPulled)
attr title "outgoing packet lengths"
attr unit b
vector 124 FourLAN.switch1.eth[0].queue outgoingDataRate:vector ETV
attr interpolationmode linear
attr recordingmode vector
attr source throughput(packetPulled)
attr title "outgoing datarate"
attr unit bps
vector 125 FourLAN.switch1.eth[0].queue droppedPacketLengthsQueueOverflow:vector ETV
attr interpolationmode none
attr recordingmode vector
attr source packetLength(packetDropReasonIsQueueOverflow(packetDropped))
attr title "dropped packet lengths: queue overflow"
attr unit b
vector 126 FourLAN.switch1.eth[0].queue flowQueueingTime:vector ETV
attr interpolationmode none
attr recordingmode vector
attr source queueingTime(demuxFlow(packetPulled))
attr title "flow queueing times"
attr unit s
vector 127 FourLAN.switch1.eth[0].queue flowIncomingDataRate:vector ETV
attr interpolationmode linear
attr recordingmode vector
attr source throughput(flowPacketLength(demuxFlow(packetPushStarted)))
attr title "flow specific incoming data rate"
attr unit bps
vector 128 FourLAN.switch1.eth[0].queue flowOutgoingDataRate:vector ETV
attr interpolationmode linear
attr recordingmode vector
attr source throughput(flowPacketLength(demuxFlow(packetPulled)))
attr title "flow specific outgoing data rate"
attr unit bps
vector 129 FourLAN.switch1.eth[0].mac transmitting:vector ETV
attr interpolationmode sample-hold
attr recordingmode vector
attr source "count(transmissionStarted) - count(transmissionEnded)"
attr title "transmitting state"
attr type int
vector 130 FourLAN.switch1.eth[0].mac throughput:vector ETV
attr interpolationmode linear
attr recordingmode vector
attr source throughput(transmissionEnded)
attr title throughput
attr unit bps
vector 131 FourLAN.switch1.eth[0].mac utilization:vector ETV
attr interpolationmode linear
attr recordingmode vector
attr source "100 * utilization(count(transmissionStarted) - count(transmissionEnded))"
attr title utilization
attr unit %
vector 132 FourLAN.switch1.eth[0].mac txPk:vector(packetBytes) ETV
attr interpolationmode none
attr recordingmode vector(packetBytes)
attr source packetSentToLower
attr title "packets transmitted, packetBytes"
vector 133 FourLAN.switch1.eth[0].mac rxPkOk:vector(packetBytes) ETV
attr interpolationmode none
attr recordingmode vector(packetBytes)
attr source rxPkOk
attr title "packets received OK, packetBytes"
vector 134 FourLAN.switch1.eth[0].mac passedUpPk:vector(packetBytes) ETV
attr interpolationmode none
attr recordingmode vector(packetBytes)
attr source packetSentToUpper
attr title "packets passed to higher layer, packetBytes"
vector 135 FourLAN.switch1.eth[0].mac txPausePkUnits:vector ETV
attr interpolationmode none
attr recordingmode vector
attr title "pause units sent"
vector 136 FourLAN.switch1.eth[0].mac rxPausePkUnits:vector ETV
attr interpolationmode none
attr recordingmode vector
attr title "pause units received"
vector 137 FourLAN.switch1.eth[0].mac packetReceivedFromUpper:vector(packetBytes) ETV
attr interpolationmode none
attr recordingmode vector(packetBytes)
attr source packetReceivedFromUpper
attr title "packet bytes from higher layer, packetBytes"
vector 138 FourLAN.switch1.eth[0].mac packetDropIncorrectlyReceived:vector(packetBytes) ETV
attr interpolationmode none
attr recordingmode vector(packetBytes)
attr source packetDropReasonIsIncorrectlyReceived(packetDropped)
attr title "packet drop: incorrectly received, packetBytes"
vector 139 FourLAN.switch1.eth[0].mac packetDropInterfaceDown:vector(packetBytes) ETV
attr interpolationmode none
attr recordingmode vector(packetBytes)
attr source packetDropReasonIsInterfaceDown(packetDropped)
attr title "packet drop: interface down, packetBytes"
vector 140 FourLAN.switch1.eth[0].mac packetDropNotAddressedToUs:vector(packetBytes) ETV
attr interpolationmode none
attr recordingmode vector(packetBytes)
attr source packetDropReasonIsNotAddressedToUs(packetDropped)
attr title "packet drop: not addressed to us, packetBytes"
vector 141 FourLAN.switch1.eth[0] packetDropInterfaceDown:vector(packetBytes) ETV
attr interpolationmode none
attr recordingmode vector(packetBytes)
attr source packetDropReasonIsInterfaceDown(packetDropped)
attr title "packet drops: interface down, packetBytes"
vector 142 FourLAN.switch1.eth[0] packetDropNoCarrier:vector(packetBytes) ETV
attr interpolationmode none
attr recordingmode vector(packetBytes)
attr source packetDropReasonIsNoCarrier(packetDropped)
attr title "packet drops: no carrier, packetBytes"
vector 143 FourLAN.switch1.eth[1].queue queueLength:vector ETV
attr autoWarmupFilter false
attr interpolationmode sample-hold
attr recordingmode vector
attr source "warmup(atomic(constant0(packetPushEnded) + count(packetPushStarted) - count(packetPulled) - count(packetRemoved) - count(packetDropped)))"
attr title "queue length"
attr unit pk
vector 144 FourLAN.switch1.eth[1].queue queueBitLength:vector ETV
attr autoWarmupFilter false
attr interpolationmode sample-hold
attr recordingmode vector
attr source "warmup(atomic(constant0(packetPushEnded) + sum(packetLength(packetPushStarted)) - sum(packetLength(packetPulled)) - sum(packetLength(packetRemoved)) - sum(packetLength(packetDropped))))"
attr title "queue bit length"
attr unit b
vector 145 FourLAN.switch1.eth[1].queue queueingTime:vector ETV
attr interpolationmode none
attr recordingmode vector
attr source queueingTime(packetPulled)
attr title "queueing times"
attr unit s
vector 146 FourLAN.switch1.eth[1].queue incomingPacketLengths:vector ETV
attr interpolationmode none
attr recordingmode vector
attr source packetLength(packetPushStarted)
attr title "incoming packet lengths"
attr unit b
vector 147 FourLAN.switch1.eth[1].queue incomingDataRate:vector ETV
attr interpolationmode linear
attr recordingmode vector
attr source throughput(packetPushStarted)
attr title "incoming datarate"
attr unit bps
vector 148 FourLAN.switch1.eth[1].queue outgoingPacketLengths:vector ETV
attr interpolationmode none
attr recordingmode vector
attr source packetLength(packetPulled)
attr title "outgoing packet lengths"
attr unit b
vector 149 FourLAN.switch1.eth[1].queue outgoingDataRate:vector ETV
attr interpolationmode linear
attr recordingmode vector
attr source throughput(packetPulled)
attr title "outgoing datarate"
attr unit bps
vector 150 FourLAN.switch1.eth[1].queue droppedPacketLengthsQueueOverflow:vector ETV
attr interpolationmode none
attr recordingmode vector
attr source packetLength(packetDropReasonIsQueueOverflow(packetDropped))
attr title "dropped packet lengths: queue overflow"
attr unit b
vector 151 FourLAN.switch1.eth[1].queue flowQueueingTime:vector ETV
attr interpolationmode none
attr recordingmode vector
attr source queueingTime(demuxFlow(packetPulled))
attr title "flow queueing times"
attr unit s
vector 152 FourLAN.switch1.eth[1].queue flowIncomingDataRate:vector ETV
attr interpolationmode linear
attr recordingmode vector
attr source throughput(flowPacketLength(demuxFlow(packetPushStarted)))
attr title "flow specific incoming data rate"
attr unit bps
vector 153 FourLAN.switch1.eth[1].queue flowOutgoingDataRate:vector ETV
attr interpolationmode linear
attr recordingmode vector
attr source throughput(flowPacketLength(demuxFlow(packetPulled)))
attr title "flow specific outgoing data rate"
attr unit bps
vector 154 FourLAN.switch1.eth[1].mac transmitting:vector ETV
attr interpolationmode sample-hold
attr recordingmode vector
attr source "count(transmissionStarted) - count(transmissionEnded)"
attr title "transmitting state"
attr type int
vector 155 FourLAN.switch1.eth[1].mac throughput:vector ETV
attr interpolationmode linear
attr recordingmode vector
attr source throughput(transmissionEnded)
attr title throughput
attr unit bps
vector 156 FourLAN.switch1.eth[1].mac utilization:vector ETV
attr interpolationmode linear
attr recordingmode vector
attr source "100 * utilization(count(transmissionStarted) - count(transmissionEnded))"
attr title utilization
attr unit %
vector 157 FourLAN.switch1.eth[1].mac txPk:vector(packetBytes) ETV
attr interpolationmode none
attr recordingmode vector(packetBytes)
attr source packetSentToLower
attr title "packets transmitted, packetBytes"
vector 158 FourLAN.switch1.eth[1].mac rxPkOk:vector(packetBytes) ETV
attr interpolationmode none
attr recordingmode vector(packetBytes)
attr source rxPkOk
attr title "packets received OK, packetBytes"
vector 159 FourLAN.switch1.eth[1].mac passedUpPk:vector(packetBytes) ETV
attr interpolationmode none
attr recordingmode vector(packetBytes)
attr source packetSentToUpper
attr title "packets passed to higher layer, packetBytes"
vector 160 FourLAN.switch1.eth[1].mac txPausePkUnits:vector ETV
attr interpolationmode none
attr recordingmode vector
attr title "pause units sent"
vector 161 FourLAN.switch1.eth[1].mac rxPausePkUnits:vector ETV
attr interpolationmode none
attr recordingmode vector
attr title "pause units received"
vector 162 FourLAN.switch1.eth[1].mac packetReceivedFromUpper:vector(packetBytes) ETV
attr interpolationmode none
attr recordingmode vector(packetBytes)
attr source packetReceivedFromUpper
attr title "packet bytes from higher layer, packetBytes"
vector 163 FourLAN.switch1.eth[1].mac packetDropIncorrectlyReceived:vector(packetBytes) ETV
attr interpolationmode none
attr recordingmode vector(packetBytes)
attr source packetDropReasonIsIncorrectlyReceived(packetDropped)
attr title "packet drop: incorrectly received, packetBytes"
vector 164 FourLAN.switch1.eth[1].mac packetDropInterfaceDown:vector(packetBytes) ETV
attr interpolationmode none
attr recordingmode vector(packetBytes)
attr source packetDropReasonIsInterfaceDown(packetDropped)
attr title "packet drop: interface down, packetBytes"
vector 165 FourLAN.switch1.eth[1].mac packetDropNotAddressedToUs:vector(packetBytes) ETV
attr interpolationmode none
attr recordingmode vector(packetBytes)
attr source packetDropReasonIsNotAddressedToUs(packetDropped)
attr title "packet drop: not addressed to us, packetBytes"
vector 166 FourLAN.switch1.eth[1] packetDropInterfaceDown:vector(packetBytes) ETV
attr interpolationmode none
attr recordingmode vector(packetBytes)
attr source packetDropReasonIsInterfaceDown(packetDropped)
attr title "packet drops: interface down, packetBytes"
vector 167 FourLAN.switch1.eth[1] packetDropNoCarrier:vector(packetBytes) ETV
attr interpolationmode none
attr recordingmode vector(packetBytes)
attr source packetDropReasonIsNoCarrier(packetDropped)
attr title "packet drops: no carrier, packetBytes"
vector 168 FourLAN.switch1.eth[2].queue queueLength:vector ETV
attr autoWarmupFilter false
attr interpolationmode sample-hold
attr recordingmode vector
attr source "warmup(atomic(constant0(packetPushEnded) + count(packetPushStarted) - count(packetPulled) - count(packetRemoved) - count(packetDropped)))"
attr title "queue length"
attr unit pk
vector 169 FourLAN.switch1.eth[2].queue queueBitLength:vector ETV
attr autoWarmupFilter false
attr interpolationmode sample-hold
attr recordingmode vector
attr source "warmup(atomic(constant0(packetPushEnded) + sum(packetLength(packetPushStarted)) - sum(packetLength(packetPulled)) - sum(packetLength(packetRemoved)) - sum(packetLength(packetDropped))))"
attr title "queue bit length"
attr unit b
vector 170 FourLAN.switch1.eth[2].queue queueingTime:vector ETV
attr interpolationmode none
attr recordingmode vector
attr source queueingTime(packetPulled)
attr title "queueing times"
attr unit s
vector 171 FourLAN.switch1.eth[2].queue incomingPacketLengths:vector ETV
attr interpolationmode none
attr recordingmode vector
attr source packetLength(packetPushStarted)
attr title "incoming packet lengths"
attr unit b
vector 172 FourLAN.switch1.eth[2].queue incomingDataRate:vector ETV
attr interpolationmode linear
attr recordingmode vector
attr source throughput(packetPushStarted)
attr title "incoming datarate"
attr unit bps
vector 173 FourLAN.switch1.eth[2].queue outgoingPacketLengths:vector ETV
attr interpolationmode none
attr recordingmode vector
attr source packetLength(packetPulled)
attr title "outgoing packet lengths"
attr unit b
vector 174 FourLAN.switch1.eth[2].queue outgoingDataRate:vector ETV
attr interpolationmode linear
attr recordingmode vector
attr source throughput(packetPulled)
attr title "outgoing datarate"
attr unit bps
vector 175 FourLAN.switch1.eth[2].queue droppedPacketLengthsQueueOverflow:vector ETV
attr interpolationmode none
attr recordingmode vector
attr source packetLength(packetDropReasonIsQueueOverflow(packetDropped))
attr title "dropped packet lengths: queue overflow"
attr unit b
vector 176 FourLAN.switch1.eth[2].queue flowQueueingTime:vector ETV
attr interpolationmode none
attr recordingmode vector
attr source queueingTime(demuxFlow(packetPulled))
attr title "flow queueing times"
attr unit s
vector 177 FourLAN.switch1.eth[2].queue flowIncomingDataRate:vector ETV
attr interpolationmode linear
attr recordingmode vector
attr source throughput(flowPacketLength(demuxFlow(packetPushStarted)))
attr title "flow specific incoming data rate"
attr unit bps
vector 178 FourLAN.switch1.eth[2].queue flowOutgoingDataRate:vector ETV
attr interpolationmode linear
attr recordingmode vector
attr source throughput(flowPacketLength(demuxFlow(packetPulled)))
attr title "flow specific outgoing data rate"
attr unit bps
vector 179 FourLAN.switch1.eth[2].mac transmitting:vector ETV
attr interpolationmode sample-hold
attr recordingmode vector
attr source "count(transmissionStarted) - count(transmissionEnded)"
attr title "transmitting state"
attr type int
vector 180 FourLAN.switch1.eth[2].mac throughput:vector ETV
attr interpolationmode linear
attr recordingmode vector
attr source throughput(transmissionEnded)
attr title throughput
attr unit bps
vector 181 FourLAN.switch1.eth[2].mac utilization:vector ETV
attr interpolationmode linear
attr recordingmode vector
attr source "100 * utilization(count(transmissionStarted) - count(transmissionEnded))"
attr title utilization
attr unit %
vector 182 FourLAN.switch1.eth[2].mac txPk:vector(packetBytes) ETV
attr interpolationmode none
attr recordingmode vector(packetBytes)
attr source packetSentToLower
attr title "packets transmitted, packetBytes"
vector 183 FourLAN.switch1.eth[2].mac rxPkOk:vector(packetBytes) ETV
attr interpolationmode none
attr recordingmode vector(packetBytes)
attr source rxPkOk
attr title "packets received OK, packetBytes"
vector 184 FourLAN.switch1.eth[2].mac passedUpPk:vector(packetBytes) ETV
attr interpolationmode none
attr recordingmode vector(packetBytes)
attr source packetSentToUpper
attr title "packets passed to higher layer, packetBytes"
vector 185 FourLAN.switch1.eth[2].mac txPausePkUnits:vector ETV
attr interpolationmode none
attr recordingmode vector
attr title "pause units sent"
vector 186 FourLAN.switch1.eth[2].mac rxPausePkUnits:vector ETV
attr interpolationmode none
attr recordingmode vector
attr title "pause units received"
vector 187 FourLAN.switch1.eth[2].mac packetReceivedFromUpper:vector(packetBytes) ETV
attr interpolationmode none
attr recordingmode vector(packetBytes)
attr source packetReceivedFromUpper
attr title "packet bytes from higher layer, packetBytes"
vector 188 FourLAN.switch1.eth[2].mac packetDropIncorrectlyReceived:vector(packetBytes) ETV
attr interpolationmode none
attr recordingmode vector(packetBytes)
attr source packetDropReasonIsIncorrectlyReceived(packetDropped)
attr title "packet drop: incorrectly received, packetBytes"
vector 189 FourLAN.switch1.eth[2].mac packetDropInterfaceDown:vector(packetBytes) ETV
attr interpolationmode none
attr recordingmode vector(packetBytes)
attr source packetDropReasonIsInterfaceDown(packetDropped)
attr title "packet drop: interface down, packetBytes"
vector 190 FourLAN.switch1.eth[2].mac packetDropNotAddressedToUs:vector(packetBytes) ETV
attr interpolationmode none
attr recordingmode vector(packetBytes)
attr source packetDropReasonIsNotAddressedToUs(packetDropped)
attr title "packet drop: not addressed to us, packetBytes"
vector 191 FourLAN.switch1.eth[2] packetDropInterfaceDown:vector(packetBytes) ETV
attr interpolationmode none
attr recordingmode vector(packetBytes)
attr source packetDropReasonIsInterfaceDown(packetDropped)
attr title "packet drops: interface down, packetBytes"
vector 192 FourLAN.switch1.eth[2] packetDropNoCarrier:vector(packetBytes) ETV
attr interpolationmode none
attr recordingmode vector(packetBytes)
attr source packetDropReasonIsNoCarrier(packetDropped)
attr title "packet drops: no carrier, packetBytes"
vector 193 FourLAN.router1.ethernet encapPk:vector(packetBytes) ETV
attr interpolationmode none
attr recordingmode vector(packetBytes)
attr source encapPk
attr title "packets encapsulated, packetBytes"
vector 194 FourLAN.router1.ethernet decapPk:vector(packetBytes) ETV
attr interpolationmode none
attr recordingmode vector(packetBytes)
attr source decapPk
attr title "packets decapsulated, packetBytes"
vector 195 FourLAN.router1.ethernet pauseSent:vector ETV
attr recordingmode vector
attr title "pause sent"
vector 196 FourLAN.router1.lo[0].lo rcvdPkFromHl:vector(packetBytes) ETV
attr interpolationmode none
attr recordingmode vector(packetBytes)
attr source packetReceivedFromUpper
attr title "packets received from higher layer, packetBytes"
vector 197 FourLAN.router1.lo[0].lo passedUpPk:vector(packetBytes) ETV
attr interpolationmode none
attr recordingmode vector(packetBytes)
attr source packetSentToUpper
attr title "packets passed to higher layer, packetBytes"
vector 198 FourLAN.router1.lo[0] packetDropInterfaceDown:vector(packetBytes) ETV
attr interpolationmode none
attr recordingmode vector(packetBytes)
attr source packetDropReasonIsInterfaceDown(packetDropped)
attr title "packet drops: interface down, packetBytes"
vector 199 FourLAN.router1.lo[0] packetDropNoCarrier:vector(packetBytes) ETV
attr interpolationmode none
attr recordingmode vector(packetBytes)
attr source packetDropReasonIsNoCarrier(packetDropped)
attr title "packet drops: no carrier, packetBytes"
vector 200 FourLAN.router1.ppp[0].queue queueLength:vector ETV
attr autoWarmupFilter false
attr interpolationmode sample-hold
attr recordingmode vector
attr source "warmup(atomic(constant0(packetPushEnded) + count(packetPushStarted) - count(packetPulled) - count(packetRemoved) - count(packetDropped)))"
attr title "queue length"
attr unit pk
vector 201 FourLAN.router1.ppp[0].queue queueBitLength:vector ETV
attr autoWarmupFilter false
attr interpolationmode sample-hold
attr recordingmode vector
attr source "warmup(atomic(constant0(packetPushEnded) + sum(packetLength(packetPushStarted)) - sum(packetLength(packetPulled)) - sum(packetLength(packetRemoved)) - sum(packetLength(packetDropped))))"
attr title "queue bit length"
attr unit b
vector 202 FourLAN.router1.ppp[0].queue queueingTime:vector ETV
attr interpolationmode none
attr recordingmode vector
attr source queueingTime(packetPulled)
attr title "queueing times"
attr unit s
vector 203 FourLAN.router1.ppp[0].queue incomingPacketLengths:vector ETV
attr interpolationmode none
attr recordingmode vector
attr source packetLength(packetPushStarted)
attr title "incoming packet lengths"
attr unit b
vector 204 FourLAN.router1.ppp[0].queue incomingDataRate:vector ETV
attr interpolationmode linear
attr recordingmode vector
attr source throughput(packetPushStarted)
attr title "incoming datarate"
attr unit bps
vector 205 FourLAN.router1.ppp[0].queue outgoingPacketLengths:vector ETV
attr interpolationmode none
attr recordingmode vector
attr source packetLength(packetPulled)
attr title "outgoing packet lengths"
attr unit b
vector 206 FourLAN.router1.ppp[0].queue outgoingDataRate:vector ETV
attr interpolationmode linear
attr recordingmode vector
attr source throughput(packetPulled)
attr title "outgoing datarate"
attr unit bps
vector 207 FourLAN.router1.ppp[0].queue droppedPacketLengthsQueueOverflow:vector ETV
attr interpolationmode none
attr recordingmode vector
attr source packetLength(packetDropReasonIsQueueOverflow(packetDropped))
attr title "dropped packet lengths: queue overflow"
attr unit b
vector 208 FourLAN.router1.ppp[0].queue flowQueueingTime:vector ETV
attr interpolationmode none
attr recordingmode vector
attr source queueingTime(demuxFlow(packetPulled))
attr title "flow queueing times"
attr unit s
vector 209 FourLAN.router1.ppp[0].queue flowIncomingDataRate:vector ETV
attr interpolationmode linear
attr recordingmode vector
attr source throughput(flowPacketLength(demuxFlow(packetPushStarted)))
attr title "flow specific incoming data rate"
attr unit bps
vector 210 FourLAN.router1.ppp[0].queue flowOutgoingDataRate:vector ETV
attr interpolationmode linear
attr recordingmode vector
attr source throughput(flowPacketLength(demuxFlow(packetPulled)))
attr title "flow specific outgoing data rate"
attr unit bps
vector 211 FourLAN.router1.ppp[0].ppp transmissionState:vector ETV
attr interpolationmode sample-hold
attr recordingmode vector
attr source transmissionStateChanged
attr title "tx state"
vector 212 FourLAN.router1.ppp[0].ppp txPk:vector(packetBytes) ETV
attr interpolationmode none
attr recordingmode vector(packetBytes)
attr source packetSentToLower
attr title "packets transmitted, packetBytes"
vector 213 FourLAN.router1.ppp[0].ppp rxPkOk:vector(packetBytes) ETV
attr interpolationmode none
attr recordingmode vector(packetBytes)
attr source rxPkOk
attr title "packets received OK, packetBytes"
vector 214 FourLAN.router1.ppp[0].ppp packetDropIncorrectlyReceived:vector(packetBytes) ETV
attr interpolationmode none
attr recordingmode vector(packetBytes)
attr source packetDropReasonIsIncorrectlyReceived(packetDropped)
attr title "packet drop: incorrectly received, packetBytes"
vector 215 FourLAN.router1.ppp[0].ppp packetDropInterfaceDown:vector(packetBytes) ETV
attr interpolationmode none
attr recordingmode vector(packetBytes)
attr source packetDropReasonIsInterfaceDown(packetDropped)
attr title "packet drop: interface down, packetBytes"
vector 216 FourLAN.router1.ppp[0].ppp rcvdPkFromHl:vector(packetBytes) ETV
attr interpolationmode none
attr recordingmode vector(packetBytes)
attr source packetReceivedFromUpper
attr title "packets received from higher layer, packetBytes"
vector 217 FourLAN.router1.ppp[0].ppp passedUpPk:vector(packetBytes) ETV
attr interpolationmode none
attr recordingmode vector(packetBytes)
attr source packetSentToUpper
attr title "packets passed to higher layer, packetBytes"
vector 218 FourLAN.router1.ppp[0] packetDropInterfaceDown:vector(packetBytes) ETV
attr interpolationmode none
attr recordingmode vector(packetBytes)
attr source packetDropReasonIsInterfaceDown(packetDropped)
attr title "packet drops: interface down, packetBytes"
vector 219 FourLAN.router1.ppp[0] packetDropNoCarrier:vector(packetBytes) ETV
attr interpolationmode none
attr recordingmode vector(packetBytes)
attr source packetDropReasonIsNoCarrier(packetDropped)
attr title "packet drops: no carrier, packetBytes"
vector 220 FourLAN.router1.eth[0].queue queueLength:vector ETV
attr autoWarmupFilter false
attr interpolationmode sample-hold
attr recordingmode vector
attr source "warmup(atomic(constant0(packetPushEnded) + count(packetPushStarted) - count(packetPulled) - count(packetRemoved) - count(packetDropped)))"
attr title "queue length"
attr unit pk
vector 221 FourLAN.router1.eth[0].queue queueBitLength:vector ETV
attr autoWarmupFilter false
attr interpolationmode sample-hold
attr recordingmode vector
attr source "warmup(atomic(constant0(packetPushEnded) + sum(packetLength(packetPushStarted)) - sum(packetLength(packetPulled)) - sum(packetLength(packetRemoved)) - sum(packetLength(packetDropped))))"
attr title "queue bit length"
attr unit b
vector 222 FourLAN.router1.eth[0].queue queueingTime:vector ETV
attr interpolationmode none
attr recordingmode vector
attr source queueingTime(packetPulled)
attr title "queueing times"
attr unit s
vector 223 FourLAN.router1.eth[0].queue incomingPacketLengths:vector ETV
attr interpolationmode none
attr recordingmode vector
attr source packetLength(packetPushStarted)
attr title "incoming packet lengths"
attr unit b
vector 224 FourLAN.router1.eth[0].queue incomingDataRate:vector ETV
attr interpolationmode linear
attr recordingmode vector
attr source throughput(packetPushStarted)
attr title "incoming datarate"
attr unit bps
vector 225 FourLAN.router1.eth[0].queue outgoingPacketLengths:vector ETV
attr interpolationmode none
attr recordingmode vector
attr source packetLength(packetPulled)
attr title "outgoing packet lengths"
attr unit b
vector 226 FourLAN.router1.eth[0].queue outgoingDataRate:vector ETV
attr interpolationmode linear
attr recordingmode vector
attr source throughput(packetPulled)
attr title "outgoing datarate"
attr unit bps
vector 227 FourLAN.router1.eth[0].queue droppedPacketLengthsQueueOverflow:vector ETV
attr interpolationmode none
attr recordingmode vector
attr source packetLength(packetDropReasonIsQueueOverflow(packetDropped))
attr title "dropped packet lengths: queue overflow"
attr unit b
vector 228 FourLAN.router1.eth[0].queue flowQueueingTime:vector ETV
attr interpolationmode none
attr recordingmode vector
attr source queueingTime(demuxFlow(packetPulled))
attr title "flow queueing times"
attr unit s
vector 229 FourLAN.router1.eth[0].queue flowIncomingDataRate:vector ETV
attr interpolationmode linear
attr recordingmode vector
attr source throughput(flowPacketLength(demuxFlow(packetPushStarted)))
attr title "flow specific incoming data rate"
attr unit bps
vector 230 FourLAN.router1.eth[0].queue flowOutgoingDataRate:vector ETV
attr interpolationmode linear
attr recordingmode vector
attr source throughput(flowPacketLength(demuxFlow(packetPulled)))
attr title "flow specific outgoing data rate"
attr unit bps
vector 231 FourLAN.router1.eth[0].mac transmitting:vector ETV
attr interpolationmode sample-hold
attr recordingmode vector
attr source "count(transmissionStarted) - count(transmissionEnded)"
attr title "transmitting state"
attr type int
vector 232 FourLAN.router1.eth[0].mac throughput:vector ETV
attr interpolationmode linear
attr recordingmode vector
attr source throughput(transmissionEnded)
attr title throughput
attr unit bps
vector 233 FourLAN.router1.eth[0].mac utilization:vector ETV
attr interpolationmode linear
attr recordingmode vector
attr source "100 * utilization(count(transmissionStarted) - count(transmissionEnded))"
attr title utilization
attr unit %
vector 234 FourLAN.router1.eth[0].mac txPk:vector(packetBytes) ETV
attr interpolationmode none
attr recordingmode vector(packetBytes)
attr source packetSentToLower
attr title "packets transmitted, packetBytes"
vector 235 FourLAN.router1.eth[0].mac rxPkOk:vector(packetBytes) ETV
attr interpolationmode none
attr recordingmode vector(packetBytes)
attr source rxPkOk
attr title "packets received OK, packetBytes"
vector 236 FourLAN.router1.eth[0].mac passedUpPk:vector(packetBytes) ETV
attr interpolationmode none
attr recordingmode vector(packetBytes)
attr source packetSentToUpper
attr title "packets passed to higher layer, packetBytes"
vector 237 FourLAN.router1.eth[0].mac txPausePkUnits:vector ETV
attr interpolationmode none
attr recordingmode vector
attr title "pause units sent"
vector 238 FourLAN.router1.eth[0].mac rxPausePkUnits:vector ETV
attr interpolationmode none
attr recordingmode vector
attr title "pause units received"
vector 239 FourLAN.router1.eth[0].mac packetReceivedFromUpper:vector(packetBytes) ETV
attr interpolationmode none
attr recordingmode vector(packetBytes)
attr source packetReceivedFromUpper
attr title "packet bytes from higher layer, packetBytes"
vector 240 FourLAN.router1.eth[0].mac packetDropIncorrectlyReceived:vector(packetBytes) ETV
attr interpolationmode none
attr recordingmode vector(packetBytes)
attr source packetDropReasonIsIncorrectlyReceived(packetDropped)
attr title "packet drop: incorrectly received, packetBytes"
vector 241 FourLAN.router1.eth[0].mac packetDropInterfaceDown:vector(packetBytes) ETV
attr interpolationmode none
attr recordingmode vector(packetBytes)
attr source packetDropReasonIsInterfaceDown(packetDropped)
attr title "packet drop: interface down, packetBytes"
vector 242 FourLAN.router1.eth[0].mac packetDropNotAddressedToUs:vector(packetBytes) ETV
attr interpolationmode none
attr recordingmode vector(packetBytes)
attr source packetDropReasonIsNotAddressedToUs(packetDropped)
attr title "packet drop: not addressed to us, packetBytes"
vector 243 FourLAN.router1.eth[0] packetDropInterfaceDown:vector(packetBytes) ETV
attr interpolationmode none
attr recordingmode vector(packetBytes)
attr source packetDropReasonIsInterfaceDown(packetDropped)
attr title "packet drops: interface down, packetBytes"
vector 244 FourLAN.router1.eth[0] packetDropNoCarrier:vector(packetBytes) ETV
attr interpolationmode none
attr recordingmode vector(packetBytes)
attr source packetDropReasonIsNoCarrier(packetDropped)
attr title "packet drops: no carrier, packetBytes"
vector 245 FourLAN.router1.ipv4.ip packetDropAddressResolutionFailed:vector(packetBytes) ETV
attr interpolationmode none
attr recordingmode vector(packetBytes)
attr source packetDropReasonIsAddressResolutionFailed(packetDropped)
attr title "packet drop: address resolution failed, packetBytes"
vector 246 FourLAN.router1.ipv4.ip packetDropHopLimitReached:vector(packetBytes) ETV
attr interpolationmode none
attr recordingmode vector(packetBytes)
attr source packetDropReasonIsHopLimitReached(packetDropped)
attr title "packet drop: hop limit reached, packetBytes"
vector 247 FourLAN.router1.ipv4.ip packetDropForwardingDisabled:vector(packetBytes) ETV
attr interpolationmode none
attr recordingmode vector(packetBytes)
attr source packetDropReasonIsForwardingDisabled(packetDropped)
attr title "packet drop: forwarding disabled, packetBytes"
vector 248 FourLAN.router1.ipv4.ip packetDropLifetimeExpired:vector(packetBytes) ETV
attr interpolationmode none
attr recordingmode vector(packetBytes)
attr source packetDropReasonIsLifetimeExpired(packetDropped)
attr title "packet drop: lifetime expired, packetBytes"
vector 249 FourLAN.router1.ipv4.ip packetDropNoInterfaceFound:vector(packetBytes) ETV
attr interpolationmode none
attr recordingmode vector(packetBytes)
attr source packetDropReasonIsNoInterfaceFound(packetDropped)
attr title "packet drop: no interface found, packetBytes"
vector 250 FourLAN.router1.ipv4.ip packetDropNoRouteFound:vector(packetBytes) ETV
attr interpolationmode none
attr recordingmode vector(packetBytes)
attr source packetDropReasonIsNoRouteFound(packetDropped)
attr title "packet drop: no route found, packetBytes"
vector 251 FourLAN.router1.ipv4.ip packetDropUndefined:vector(packetBytes) ETV
attr interpolationmode none
attr recordingmode vector(packetBytes)
attr source packetDropReasonIsUndefined(packetDropped)
attr title "packet drop: undefined, packetBytes"
vector 252 FourLAN.router1.ipv4.arp arpRequestSent:vector(packetBytes) ETV
attr recordingmode vector(packetBytes)
attr source arpRequestSent
attr title "ARP request sent, packetBytes"
vector 253 FourLAN.router1.ipv4.arp arpReplySent:vector(packetBytes) ETV
attr recordingmode vector(packetBytes)
attr source arpReplySent
attr title "ARP replies sent, packetBytes"
vector 254 FourLAN.router2.ethernet encapPk:vector(packetBytes) ETV
attr interpolationmode none
attr recordingmode vector(packetBytes)
attr source encapPk
attr title "packets encapsulated, packetBytes"
vector 255 FourLAN.router2.ethernet decapPk:vector(packetBytes) ETV
attr interpolationmode none
attr recordingmode vector(packetBytes)
attr source decapPk
attr title "packets decapsulated, packetBytes"
vector 256 FourLAN.router2.ethernet pauseSent:vector ETV
attr recordingmode vector
attr title "pause sent"
vector 257 FourLAN.router2.lo[0].lo rcvdPkFromHl:vector(packetBytes) ETV
attr interpolationmode none
attr recordingmode vector(packetBytes)
attr source packetReceivedFromUpper
attr title "packets received from higher layer, packetBytes"
vector 258 FourLAN.router2.lo[0].lo passedUpPk:vector(packetBytes) ETV
attr interpolationmode none
attr recordingmode vector(packetBytes)
attr source packetSentToUpper
attr title "packets passed to higher layer, packetBytes"
vector 259 FourLAN.router2.lo[0] packetDropInterfaceDown:vector(packetBytes) ETV
attr interpolationmode none
attr recordingmode vector(packetBytes)
attr source packetDropReasonIsInterfaceDown(packetDropped)
attr title "packet drops: interface down, packetBytes"
vector 260 FourLAN.router2.lo[0] packetDropNoCarrier:vector(packetBytes) ETV
attr interpolationmode none
attr recordingmode vector(packetBytes)
attr source packetDropReasonIsNoCarrier(packetDropped)
attr title "packet drops: no carrier, packetBytes"
vector 261 FourLAN.router2.ppp[0].queue queueLength:vector ETV
attr autoWarmupFilter false
attr interpolationmode sample-hold
attr recordingmode vector
attr source "warmup(atomic(constant0(packetPushEnded) + count(packetPushStarted) - count(packetPulled) - count(packetRemoved) - count(packetDropped)))"
attr title "queue length"
attr unit pk
vector 262 FourLAN.router2.ppp[0].queue queueBitLength:vector ETV
attr autoWarmupFilter false
attr interpolationmode sample-hold
attr recordingmode vector
attr source "warmup(atomic(constant0(packetPushEnded) + sum(packetLength(packetPushStarted)) - sum(packetLength(packetPulled)) - sum(packetLength(packetRemoved)) - sum(packetLength(packetDropped))))"
attr title "queue bit length"
attr unit b
vector 263 FourLAN.router2.ppp[0].queue queueingTime:vector ETV
attr interpolationmode none
attr recordingmode vector
attr source queueingTime(packetPulled)
attr title "queueing times"
attr unit s
vector 264 FourLAN.router2.ppp[0].queue incomingPacketLengths:vector ETV
attr interpolationmode none
attr recordingmode vector
attr source packetLength(packetPushStarted)
attr title "incoming packet lengths"
attr unit b
vector 265 FourLAN.router2.ppp[0].queue incomingDataRate:vector ETV
attr interpolationmode linear
attr recordingmode vector
attr source throughput(packetPushStarted)
attr title "incoming datarate"
attr unit bps
vector 266 FourLAN.router2.ppp[0].queue outgoingPacketLengths:vector ETV
attr interpolationmode none
attr recordingmode vector
attr source packetLength(packetPulled)
attr title "outgoing packet lengths"
attr unit b
vector 267 FourLAN.router2.ppp[0].queue outgoingDataRate:vector ETV
attr interpolationmode linear
attr recordingmode vector
attr source throughput(packetPulled)
attr title "outgoing datarate"
attr unit bps
vector 268 FourLAN.router2.ppp[0].queue droppedPacketLengthsQueueOverflow:vector ETV
attr interpolationmode none
attr recordingmode vector
attr source packetLength(packetDropReasonIsQueueOverflow(packetDropped))
attr title "dropped packet lengths: queue overflow"
attr unit b
vector 269 FourLAN.router2.ppp[0].queue flowQueueingTime:vector ETV
attr interpolationmode none
attr recordingmode vector
attr source queueingTime(demuxFlow(packetPulled))
attr title "flow queueing times"
attr unit s
vector 270 FourLAN.router2.ppp[0].queue flowIncomingDataRate:vector ETV
attr interpolationmode linear
attr recordingmode vector
attr source throughput(flowPacketLength(demuxFlow(packetPushStarted)))
attr title "flow specific incoming data rate"
attr unit bps
vector 271 FourLAN.router2.ppp[0].queue flowOutgoingDataRate:vector ETV
attr interpolationmode linear
attr recordingmode vector
attr source throughput(flowPacketLength(demuxFlow(packetPulled)))
attr title "flow specific outgoing data rate"
attr unit bps
vector 272 FourLAN.router2.ppp[0].ppp transmissionState:vector ETV
attr interpolationmode sample-hold
attr recordingmode vector
attr source transmissionStateChanged
attr title "tx state"
vector 273 FourLAN.router2.ppp[0].ppp txPk:vector(packetBytes) ETV
attr interpolationmode none
attr recordingmode vector(packetBytes)
attr source packetSentToLower
attr title "packets transmitted, packetBytes"
vector 274 FourLAN.router2.ppp[0].ppp rxPkOk:vector(packetBytes) ETV
attr interpolationmode none
attr recordingmode vector(packetBytes)
attr source rxPkOk
attr title "packets received OK, packetBytes"
vector 275 FourLAN.router2.ppp[0].ppp packetDropIncorrectlyReceived:vector(packetBytes) ETV
attr interpolationmode none
attr recordingmode vector(packetBytes)
attr source packetDropReasonIsIncorrectlyReceived(packetDropped)
attr title "packet drop: incorrectly received, packetBytes"
vector 276 FourLAN.router2.ppp[0].ppp packetDropInterfaceDown:vector(packetBytes) ETV
attr interpolationmode none
attr recordingmode vector(packetBytes)
attr source packetDropReasonIsInterfaceDown(packetDropped)
attr title "packet drop: interface down, packetBytes"
vector 277 FourLAN.router2.ppp[0].ppp rcvdPkFromHl:vector(packetBytes) ETV
attr interpolationmode none
attr recordingmode vector(packetBytes)
attr source packetReceivedFromUpper
attr title "packets received from higher layer, packetBytes"
vector 278 FourLAN.router2.ppp[0].ppp passedUpPk:vector(packetBytes) ETV
attr interpolationmode none
attr recordingmode vector(packetBytes)
attr source packetSentToUpper
attr title "packets passed to higher layer, packetBytes"
vector 279 FourLAN.router2.ppp[0] packetDropInterfaceDown:vector(packetBytes) ETV
attr interpolationmode none
attr recordingmode vector(packetBytes)
attr source packetDropReasonIsInterfaceDown(packetDropped)
attr title "packet drops: interface down, packetBytes"
vector 280 FourLAN.router2.ppp[0] packetDropNoCarrier:vector(packetBytes) ETV
attr interpolationmode none
attr recordingmode vector(packetBytes)
attr source packetDropReasonIsNoCarrier(packetDropped)
attr title "packet drops: no carrier, packetBytes"
vector 281 FourLAN.router2.eth[0].queue queueLength:vector ETV
attr autoWarmupFilter false
attr interpolationmode sample-hold
attr recordingmode vector
attr source "warmup(atomic(constant0(packetPushEnded) + count(packetPushStarted) - count(packetPulled) - count(packetRemoved) - count(packetDropped)))"
attr title "queue length"
attr unit pk
vector 282 FourLAN.router2.eth[0].queue queueBitLength:vector ETV
attr autoWarmupFilter false
attr interpolationmode sample-hold
attr recordingmode vector
attr source "warmup(atomic(constant0(packetPushEnded) + sum(packetLength(packetPushStarted)) - sum(packetLength(packetPulled)) - sum(packetLength(packetRemoved)) - sum(packetLength(packetDropped))))"
attr title "queue bit length"
attr unit b
vector 283 FourLAN.router2.eth[0].queue queueingTime:vector ETV
attr interpolationmode none
attr recordingmode vector
attr source queueingTime(packetPulled)
attr title "queueing times"
attr unit s
vector 284 FourLAN.router2.eth[0].queue incomingPacketLengths:vector ETV
attr interpolationmode none
attr recordingmode vector
attr source packetLength(packetPushStarted)
attr title "incoming packet lengths"
attr unit b
vector 285 FourLAN.router2.eth[0].queue incomingDataRate:vector ETV
attr interpolationmode linear
attr recordingmode vector
attr source throughput(packetPushStarted)
attr title "incoming datarate"
attr unit bps
vector 286 FourLAN.router2.eth[0].queue outgoingPacketLengths:vector ETV
attr interpolationmode none
attr recordingmode vector
attr source packetLength(packetPulled)
attr title "outgoing packet lengths"
attr unit b
vector 287 FourLAN.router2.eth[0].queue outgoingDataRate:vector ETV
attr interpolationmode linear
attr recordingmode vector
attr source throughput(packetPulled)
attr title "outgoing datarate"
attr unit bps
vector 288 FourLAN.router2.eth[0].queue droppedPacketLengthsQueueOverflow:vector ETV
attr interpolationmode none
attr recordingmode vector
attr source packetLength(packetDropReasonIsQueueOverflow(packetDropped))
attr title "dropped packet lengths: queue overflow"
attr unit b
vector 289 FourLAN.router2.eth[0].queue flowQueueingTime:vector ETV
attr interpolationmode none
attr recordingmode vector
attr source queueingTime(demuxFlow(packetPulled))
attr title "flow queueing times"
attr unit s
vector 290 FourLAN.router2.eth[0].queue flowIncomingDataRate:vector ETV
attr interpolationmode linear
attr recordingmode vector
attr source throughput(flowPacketLength(demuxFlow(packetPushStarted)))
attr title "flow specific incoming data rate"
attr unit bps
vector 291 FourLAN.router2.eth[0].queue flowOutgoingDataRate:vector ETV
attr interpolationmode linear
attr recordingmode vector
attr source throughput(flowPacketLength(demuxFlow(packetPulled)))
attr title "flow specific outgoing data rate"
attr unit bps
vector 292 FourLAN.router2.eth[0].mac transmitting:vector ETV
attr interpolationmode sample-hold
attr recordingmode vector
attr source "count(transmissionStarted) - count(transmissionEnded)"
attr title "transmitting state"
attr type int
vector 293 FourLAN.router2.eth[0].mac throughput:vector ETV
attr interpolationmode linear
attr recordingmode vector
attr source throughput(transmissionEnded)
attr title throughput
attr unit bps
vector 294 FourLAN.router2.eth[0].mac utilization:vector ETV
attr interpolationmode linear
attr recordingmode vector
attr source "100 * utilization(count(transmissionStarted) - count(transmissionEnded))"
attr title utilization
attr unit %
vector 295 FourLAN.router2.eth[0].mac txPk:vector(packetBytes) ETV
attr interpolationmode none
attr recordingmode vector(packetBytes)
attr source packetSentToLower
attr title "packets transmitted, packetBytes"
vector 296 FourLAN.router2.eth[0].mac rxPkOk:vector(packetBytes) ETV
attr interpolationmode none
attr recordingmode vector(packetBytes)
attr source rxPkOk
attr title "packets received OK, packetBytes"
vector 297 FourLAN.router2.eth[0].mac passedUpPk:vector(packetBytes) ETV
attr interpolationmode none
attr recordingmode vector(packetBytes)
attr source packetSentToUpper
attr title "packets passed to higher layer, packetBytes"
vector 298 FourLAN.router2.eth[0].mac txPausePkUnits:vector ETV
attr interpolationmode none
attr recordingmode vector
attr title "pause units sent"
vector 299 FourLAN.router2.eth[0].mac rxPausePkUnits:vector ETV
attr interpolationmode none
attr recordingmode vector
attr title "pause units received"
vector 300 FourLAN.router2.eth[0].mac packetReceivedFromUpper:vector(packetBytes) ETV
attr interpolationmode none
attr recordingmode vector(packetBytes)
attr source packetReceivedFromUpper
attr title "packet bytes from higher layer, packetBytes"
vector 301 FourLAN.router2.eth[0].mac packetDropIncorrectlyReceived:vector(packetBytes) ETV
attr interpolationmode none
attr recordingmode vector(packetBytes)
attr source packetDropReasonIsIncorrectlyReceived(packetDropped)
attr title "packet drop: incorrectly received, packetBytes"
vector 302 FourLAN.router2.eth[0].mac packetDropInterfaceDown:vector(packetBytes) ETV
attr interpolationmode none
attr recordingmode vector(packetBytes)
attr source packetDropReasonIsInterfaceDown(packetDropped)
attr title "packet drop: interface down, packetBytes"
vector 303 FourLAN.router2.eth[0].mac packetDropNotAddressedToUs:vector(packetBytes) ETV
attr interpolationmode none
attr recordingmode vector(packetBytes)
attr source packetDropReasonIsNotAddressedToUs(packetDropped)
attr title "packet drop: not addressed to us, packetBytes"
vector 304 FourLAN.router2.eth[0] packetDropInterfaceDown:vector(packetBytes) ETV
attr interpolationmode none
attr recordingmode vector(packetBytes)
attr source packetDropReasonIsInterfaceDown(packetDropped)
attr title "packet drops: interface down, packetBytes"
vector 305 FourLAN.router2.eth[0] packetDropNoCarrier:vector(packetBytes) ETV
attr interpolationmode none
attr recordingmode vector(packetBytes)
attr source packetDropReasonIsNoCarrier(packetDropped)
attr title "packet drops: no carrier, packetBytes"
vector 306 FourLAN.router2.eth[1].queue queueLength:vector ETV
attr autoWarmupFilter false
attr interpolationmode sample-hold
attr recordingmode vector
attr source "warmup(atomic(constant0(packetPushEnded) + count(packetPushStarted) - count(packetPulled) - count(packetRemoved) - count(packetDropped)))"
attr title "queue length"
attr unit pk
vector 307 FourLAN.router2.eth[1].queue queueBitLength:vector ETV
attr autoWarmupFilter false
attr interpolationmode sample-hold
attr recordingmode vector
attr source "warmup(atomic(constant0(packetPushEnded) + sum(packetLength(packetPushStarted)) - sum(packetLength(packetPulled)) - sum(packetLength(packetRemoved)) - sum(packetLength(packetDropped))))"
attr title "queue bit length"
attr unit b
vector 308 FourLAN.router2.eth[1].queue queueingTime:vector ETV
attr interpolationmode none
attr recordingmode vector
attr source queueingTime(packetPulled)
attr title "queueing times"
attr unit s
vector 309 FourLAN.router2.eth[1].queue incomingPacketLengths:vector ETV
attr interpolationmode none
attr recordingmode vector
attr source packetLength(packetPushStarted)
attr title "incoming packet lengths"
attr unit b
vector 310 FourLAN.router2.eth[1].queue incomingDataRate:vector ETV
attr interpolationmode linear
attr recordingmode vector
attr source throughput(packetPushStarted)
attr title "incoming datarate"
attr unit bps
vector 311 FourLAN.router2.eth[1].queue outgoingPacketLengths:vector ETV
attr interpolationmode none
attr recordingmode vector
attr source packetLength(packetPulled)
attr title "outgoing packet lengths"
attr unit b
vector 312 FourLAN.router2.eth[1].queue outgoingDataRate:vector ETV
attr interpolationmode linear
attr recordingmode vector
attr source throughput(packetPulled)
attr title "outgoing datarate"
attr unit bps
vector 313 FourLAN.router2.eth[1].queue droppedPacketLengthsQueueOverflow:vector ETV
attr interpolationmode none
attr recordingmode vector
attr source packetLength(packetDropReasonIsQueueOverflow(packetDropped))
attr title "dropped packet lengths: queue overflow"
attr unit b
vector 314 FourLAN.router2.eth[1].queue flowQueueingTime:vector ETV
attr interpolationmode none
attr recordingmode vector
attr source queueingTime(demuxFlow(packetPulled))
attr title "flow queueing times"
attr unit s
vector 315 FourLAN.router2.eth[1].queue flowIncomingDataRate:vector ETV
attr interpolationmode linear
attr recordingmode vector
attr source throughput(flowPacketLength(demuxFlow(packetPushStarted)))
attr title "flow specific incoming data rate"
attr unit bps
vector 316 FourLAN.router2.eth[1].queue flowOutgoingDataRate:vector ETV
attr interpolationmode linear
attr recordingmode vector
attr source throughput(flowPacketLength(demuxFlow(packetPulled)))
attr title "flow specific outgoing data rate"
attr unit bps
vector 317 FourLAN.router2.eth[1].mac transmitting:vector ETV
attr interpolationmode sample-hold
attr recordingmode vector
attr source "count(transmissionStarted) - count(transmissionEnded)"
attr title "transmitting state"
attr type int
vector 318 FourLAN.router2.eth[1].mac throughput:vector ETV
attr interpolationmode linear
attr recordingmode vector
attr source throughput(transmissionEnded)
attr title throughput
attr unit bps
vector 319 FourLAN.router2.eth[1].mac utilization:vector ETV
attr interpolationmode linear
attr recordingmode vector
attr source "100 * utilization(count(transmissionStarted) - count(transmissionEnded))"
attr title utilization
attr unit %
vector 320 FourLAN.router2.eth[1].mac txPk:vector(packetBytes) ETV
attr interpolationmode none
attr recordingmode vector(packetBytes)
attr source packetSentToLower
attr title "packets transmitted, packetBytes"
vector 321 FourLAN.router2.eth[1].mac rxPkOk:vector(packetBytes) ETV
attr interpolationmode none
attr recordingmode vector(packetBytes)
attr source rxPkOk
attr title "packets received OK, packetBytes"
vector 322 FourLAN.router2.eth[1].mac passedUpPk:vector(packetBytes) ETV
attr interpolationmode none
attr recordingmode vector(packetBytes)
attr source packetSentToUpper
attr title "packets passed to higher layer, packetBytes"
vector 323 FourLAN.router2.eth[1].mac txPausePkUnits:vector ETV
attr interpolationmode none
attr recordingmode vector
attr title "pause units sent"
vector 324 FourLAN.router2.eth[1].mac rxPausePkUnits:vector ETV
attr interpolationmode none
attr recordingmode vector
attr title "pause units received"
vector 325 FourLAN.router2.eth[1].mac packetReceivedFromUpper:vector(packetBytes) ETV
attr interpolationmode none
attr recordingmode vector(packetBytes)
attr source packetReceivedFromUpper
attr title "packet bytes from higher layer, packetBytes"
vector 326 FourLAN.router2.eth[1].mac packetDropIncorrectlyReceived:vector(packetBytes) ETV
attr interpolationmode none
attr recordingmode vector(packetBytes)
attr source packetDropReasonIsIncorrectlyReceived(packetDropped)
attr title "packet drop: incorrectly received, packetBytes"
vector 327 FourLAN.router2.eth[1].mac packetDropInterfaceDown:vector(packetBytes) ETV
attr interpolationmode none
attr recordingmode vector(packetBytes)
attr source packetDropReasonIsInterfaceDown(packetDropped)
attr title "packet drop: interface down, packetBytes"
vector 328 FourLAN.router2.eth[1].mac packetDropNotAddressedToUs:vector(packetBytes) ETV
attr interpolationmode none
attr recordingmode vector(packetBytes)
attr source packetDropReasonIsNotAddressedToUs(packetDropped)
attr title "packet drop: not addressed to us, packetBytes"
vector 329 FourLAN.router2.eth[1] packetDropInterfaceDown:vector(packetBytes) ETV
attr interpolationmode none
attr recordingmode vector(packetBytes)
[...]
363	54	2.00010576	64
363	67	2.00011248	64
363	179	2.00053184	102
363	193	2.0005416	102
363	318	2.00603984	102
363	332	2.00611264	102
363	475	2.5056168	102
363	556	3.0001088	102
363	572	3.00011856	102
363	576	3.00012832	64
369	0	0	0
369	0	0	0
369	0	0	0
369	0	0	0
369	0	0	0
369	57	2.00010576	0
369	123	2.00031728	0
369	250	2.00582224	0
369	391	2.01133024	0
369	458	2.5053992	0
370	0	0	0
370	0	0	0
370	0	0	0
370	0	0	0
370	0	0	0
370	57	2.00010576	0
370	123	2.00031728	0
370	250	2.00582224	0
370	391	2.01133024	0
370	458	2.5053992	0
371	57	2.00010576	0
371	123	2.00031728	0
371	250	2.00582224	0
371	391	2.01133024	0
371	458	2.5053992	0
372	57	2.00010576	512
372	123	2.00031728	512
372	250	2.00582224	816
372	391	2.01133024	816
372	458	2.5053992	816
373	57	0.1	0
373	57	0.2	0
373	57	0.3	0
373	57	0.4	0
373	57	0.5	0
373	57	0.6	0
373	57	0.7	0
373	57	0.8	0
373	57	0.9	0
373	57	1	0
373	57	1.1	0
373	57	1.2	0
373	57	1.3	0
373	57	1.4	0
373	57	1.5	0
373	57	1.6	0
373	57	1.7	0
373	57	1.8	0
373	57	1.9	0
373	57	2	0
373	458	2.1	26560
373	458	2.2	0
373	458	2.3	0
373	458	2.4	0
373	458	2.5	0
374	57	2.00010576	512
374	123	2.00031728	512
374	250	2.00582224	816
374	391	2.01133024	816
374	458	2.5053992	816
375	57	0.1	0
375	57	0.2	0
375	57	0.3	0
375	57	0.4	0
375	57	0.5	0
375	57	0.6	0
375	57	0.7	0
375	57	0.8	0
375	57	0.9	0
375	57	1	0
375	57	1.1	0
375	57	1.2	0
375	57	1.3	0
375	57	1.4	0
375	57	1.5	0
375	57	1.6	0
375	57	1.7	0
375	57	1.8	0
375	57	1.9	0
375	57	2	0
375	458	2.1	26560
375	458	2.2	0
375	458	2.3	0
375	458	2.4	0
375	458	2.5	0
380	0	0	0
380	0	0	0
380	57	2.00010576	1
380	63	2.00011152	0
380	123	2.00031728	1
380	125	2.00032304	0
380	250	2.00582224	1
380	252	2.00583104	0
380	391	2.01133024	1
380	393	2.01133904	0
380	458	2.5053992	1
380	459	2.505408	0
381	63	0.1	0
381	63	0.2	0
381	63	0.3	0
381	63	0.4	0
381	63	0.5	0
381	63	0.6	0
381	63	0.7	0
381	63	0.8	0
381	63	0.9	0
381	63	1	0
381	63	1.1	0
381	63	1.2	0
381	63	1.3	0
381	63	1.4	0
381	63	1.5	0
381	63	1.6	0
381	63	1.7	0
381	63	1.8	0
381	63	1.9	0
381	63	2	0
381	459	2.1	29120
381	459	2.2	0
381	459	2.3	0
381	459	2.4	0
381	459	2.5	0
382	57	0.1	0
382	57	0.2	0
382	57	0.3	0
382	57	0.4	0
382	57	0.5	0
382	57	0.6	0
382	57	0.7	0
382	57	0.8	0
382	57	0.9	0
382	57	1	0
382	57	1.1	0
382	57	1.2	0
382	57	1.3	0
382	57	1.4	0
382	57	1.5	0
382	57	1.6	0
382	57	1.7	0
382	57	1.8	0
382	57	1.9	0
382	57	2	0
382	458	2.1	0.02912
382	458	2.2	0
382	458	2.3	0
382	458	2.4	0
382	458	2.5	0
383	63	2.00011152	64
383	125	2.00032304	64
383	252	2.00583104	102
383	393	2.01133904	102
383	459	2.505408	102
384	32	2.00010576	64
384	171	2.00053184	102
384	310	2.00603984	102
384	471	2.5056168	102
384	540	3.0001088	102
384	559	3.00011552	64
385	32	2.00010576	64
385	171	2.00053184	102
385	310	2.00603984	102
385	471	2.5056168	102
385	540	3.0001088	102
385	559	3.00011552	64
388	57	2.00010576	64
388	123	2.00031728	64
388	250	2.00582224	102
388	391	2.01133024	102
388	458	2.5053992	102
394	0	0	0
394	0	0	0
394	0	0	0
394	0	0	0
394	0	0	0
394	55	2.00010576	0
394	137	2.000324	0
394	264	2.00589504	0
394	405	2.01140304	0
395	0	0	0
395	0	0	0
395	0	0	0
395	0	0	0
395	0	0	0
395	55	2.00010576	0
395	137	2.000324	0
395	264	2.00589504	0
395	405	2.01140304	0
396	55	2.00010576	0
396	137	2.000324	0
396	264	2.00589504	0
396	405	2.01140304	0
397	55	2.00010576	512
397	137	2.000324	512
397	264	2.00589504	816
397	405	2.01140304	816
398	55	0.1	0
398	55	0.2	0
398	55	0.3	0
398	55	0.4	0
398	55	0.5	0
398	55	0.6	0
398	55	0.7	0
398	55	0.8	0
398	55	0.9	0
398	55	1	0
398	55	1.1	0
398	55	1.2	0
398	55	1.3	0
398	55	1.4	0
398	55	1.5	0
398	55	1.6	0
398	55	1.7	0
398	55	1.8	0
398	55	1.9	0
398	55	2	0
399	55	2.00010576	512
399	137	2.000324	512
399	264	2.00589504	816
399	405	2.01140304	816
400	55	0.1	0
400	55	0.2	0
400	55	0.3	0
400	55	0.4	0
400	55	0.5	0
400	55	0.6	0
400	55	0.7	0
400	55	0.8	0
400	55	0.9	0
400	55	1	0
400	55	1.1	0
400	55	1.2	0
400	55	1.3	0
400	55	1.4	0
400	55	1.5	0
400	55	1.6	0
400	55	1.7	0
400	55	1.8	0
400	55	1.9	0
400	55	2	0
405	0	0	0
405	0	0	0
405	55	2.00010576	1
405	62	2.00011152	0
405	137	2.000324	1
405	139	2.00032976	0
405	264	2.00589504	1
405	266	2.00590384	0
405	405	2.01140304	1
405	407	2.01141184	0
406	62	0.1	0
406	62	0.2	0
406	62	0.3	0
406	62	0.4	0
406	62	0.5	0
406	62	0.6	0
406	62	0.7	0
406	62	0.8	0
406	62	0.9	0
406	62	1	0
406	62	1.1	0
406	62	1.2	0
406	62	1.3	0
406	62	1.4	0
406	62	1.5	0
406	62	1.6	0
406	62	1.7	0
406	62	1.8	0
406	62	1.9	0
406	62	2	0
407	55	0.1	0
407	55	0.2	0
407	55	0.3	0
407	55	0.4	0
407	55	0.5	0
407	55	0.6	0
407	55	0.7	0
407	55	0.8	0
407	55	0.9	0
407	55	1	0
407	55	1.1	0
407	55	1.2	0
407	55	1.3	0
407	55	1.4	0
407	55	1.5	0
407	55	1.6	0
407	55	1.7	0
407	55	1.8	0
407	55	1.9	0
407	55	2	0
408	62	2.00011152	64
408	139	2.00032976	64
408	266	2.00590384	102
408	407	2.01141184	102
409	33	2.00010576	64
409	181	2.00053856	102
409	324	2.00611264	102
409	541	3.0001088	102
410	33	2.00010576	64
410	181	2.00053856	102
410	324	2.00611264	102
410	541	3.0001088	102
413	55	2.00010576	64
413	137	2.000324	64
413	264	2.00589504	102
413	405	2.01140304	102
419	16	2	28
419	149	2.00042304	84
419	282	2.00593104	84
419	467	2.505508	84
419	516	3	84
419	520	3	44
420	85	2.00021152	46
420	145	2.00042304	46
420	272	2.00593104	84
420	413	2.01143904	84
420	462	2.505508	84
426	0	0	0
426	0	0	0
426	0	0	0
426	0	0	0
426	0	0	0
426	20	2	0
426	151	2.00042304	0
426	284	2.00593104	0
426	468	2.505508	0
426	522	3	0
426	526	3	1
426	532	3.00000976	0
427	0	0	0
427	0	0	0
427	0	0	0
427	0	0	0
427	0	0	0
427	20	2	0
427	151	2.00042304	0
427	284	2.00593104	0
427	468	2.505508	0
427	522	3	0
427	526	3	496
427	532	3.00000976	0
428	20	2	0
428	151	2.00042304	0
428	284	2.00593104	0
428	468	2.505508	0
428	522	3	0
428	532	3.00000976	9.76e-06
429	20	2	368
429	151	2.00042304	816
429	284	2.00593104	816
429	468	2.505508	816
429	522	3	816
429	526	3	496
430	20	0.1	0
430	20	0.2	0
430	20	0.3	0
430	20	0.4	0
430	20	0.5	0
430	20	0.6	0
430	20	0.7	0
430	20	0.8	0
430	20	0.9	0
430	20	1	0
430	20	1.1	0
430	20	1.2	0
430	20	1.3	0
430	20	1.4	0
430	20	1.5	0
430	20	1.6	0
430	20	1.7	0
430	20	1.8	0
430	20	1.9	0
430	20	2	0
430	468	2.1	20000
430	468	2.2	0
430	468	2.3	0
430	468	2.4	0
430	468	2.5	0
430	522	2.6	8160
430	522	2.7	0
430	522	2.8	0
430	522	2.9	0
430	522	3	0
431	20	2	368
431	151	2.00042304	816
431	284	2.00593104	816
431	468	2.505508	816
431	522	3	816
431	532	3.00000976	496
432	20	0.1	0
432	20	0.2	0
432	20	0.3	0
432	20	0.4	0
432	20	0.5	0
432	20	0.6	0
432	20	0.7	0
432	20	0.8	0
432	20	0.9	0
432	20	1	0
432	20	1.1	0
432	20	1.2	0
432	20	1.3	0
432	20	1.4	0
432	20	1.5	0
432	20	1.6	0
432	20	1.7	0
432	20	1.8	0
432	20	1.9	0
432	20	2	0
432	468	2.1	20000
432	468	2.2	0
432	468	2.3	0
432	468	2.4	0
432	468	2.5	0
432	522	2.6	8160
432	522	2.7	0
432	522	2.8	0
432	522	2.9	0
432	522	3	0
437	0	0	0
437	0	0	0
437	20	2	1
437	24	2.00000576	0
437	151	2.00042304	1
437	163	2.00043184	0
437	284	2.00593104	1
437	286	2.00593984	0
437	468	2.505508	1
437	469	2.5055168	0
437	522	3	1
437	528	3.0000088	0
437	532	3.00000976	1
437	535	3.00001552	0
438	24	0.1	0
438	24	0.2	0
438	24	0.3	0
438	24	0.4	0
438	24	0.5	0
438	24	0.6	0
438	24	0.7	0
438	24	0.8	0
438	24	0.9	0
438	24	1	0
438	24	1.1	0
438	24	1.2	0
438	24	1.3	0
438	24	1.4	0
438	24	1.5	0
438	24	1.6	0
438	24	1.7	0
438	24	1.8	0
438	24	1.9	0
438	24	2	0
438	469	2.1	23360
438	469	2.2	0
438	469	2.3	0
438	469	2.4	0
438	469	2.5	0
438	528	2.6	8800
438	528	2.7	0
438	528	2.8	0
438	528	2.9	0
438	528	3	0
439	20	0.1	0
439	20	0.2	0
439	20	0.3	0
439	20	0.4	0
439	20	0.5	0
439	20	0.6	0
439	20	0.7	0
439	20	0.8	0
439	20	0.9	0
439	20	1	0
439	20	1.1	0
439	20	1.2	0
439	20	1.3	0
439	20	1.4	0
439	20	1.5	0
439	20	1.6	0
439	20	1.7	0
439	20	1.8	0
439	20	1.9	0
439	20	2	0
439	468	2.1	0.02336
439	468	2.2	0
439	468	2.3	0
439	468	2.4	0
439	468	2.5	0
439	522	2.6	0.0088
439	522	2.7	0
439	522	2.8	0
439	522	2.9	0
439	522	3	0
440	24	2.00000576	64
440	163	2.00043184	102
440	286	2.00593984	102
440	469	2.5055168	102
440	528	3.0000088	102
440	535	3.00001552	64
441	79	2.00021152	64
441	143	2.00042304	64
441	270	2.00593104	102
441	411	2.01143904	102
441	461	2.505508	102
442	79	2.00021152	64
442	143	2.00042304	64
442	270	2.00593104	102
442	411	2.01143904	102
442	461	2.505508	102
445	20	2	46
445	151	2.00042304	102
445	284	2.00593104	102
445	468	2.505508	102
445	522	3	102
445	532	3.00000976	62
458	11	2	28
463	0	0	0
464	0	0	0
465	0	0	0
466	418	2.01143904	0.01143904
469	4	2	0
469	504	3	1
470	418	2.01143904	0
474	0	0	0
474	502	3	1
476	17	2	28
476	159	2.00042976	84
476	302	2.00600384	84
476	517	3	84
477	84	2.00021152	46
477	155	2.00042976	46
477	292	2.00600384	84
477	423	2.01151184	84
483	0	0	0
483	0	0	0
483	0	0	0
483	0	0	0
483	0	0	0
483	21	2	0
483	161	2.00042976	0
483	304	2.00600384	0
483	523	3	0
484	0	0	0
484	0	0	0
484	0	0	0
484	0	0	0
484	0	0	0
484	21	2	0
484	161	2.00042976	0
484	304	2.00600384	0
484	523	3	0
485	21	2	0
485	161	2.00042976	0
485	304	2.00600384	0
485	523	3	0
486	21	2	368
486	161	2.00042976	816
486	304	2.00600384	816
486	523	3	816
487	21	0.1	0
487	21	0.2	0
487	21	0.3	0
487	21	0.4	0
487	21	0.5	0
487	21	0.6	0
487	21	0.7	0
487	21	0.8	0
487	21	0.9	0
487	21	1	0
487	21	1.1	0
487	21	1.2	0
487	21	1.3	0
487	21	1.4	0
487	21	1.5	0
487	21	1.6	0
487	21	1.7	0
487	21	1.8	0
487	21	1.9	0
487	21	2	0
487	523	2.1	20000
487	523	2.2	0
487	523	2.3	0
487	523	2.4	0
487	523	2.5	0
487	523	2.6	0
487	523	2.7	0
487	523	2.8	0
487	523	2.9	0
487	523	3	0
488	21	2	368
488	161	2.00042976	816
488	304	2.00600384	816
488	523	3	816
489	21	0.1	0
489	21	0.2	0
489	21	0.3	0
489	21	0.4	0
489	21	0.5	0
489	21	0.6	0
489	21	0.7	0
489	21	0.8	0
489	21	0.9	0
489	21	1	0
489	21	1.1	0
489	21	1.2	0
489	21	1.3	0
489	21	1.4	0
489	21	1.5	0
489	21	1.6	0
489	21	1.7	0
489	21	1.8	0
489	21	1.9	0
489	21	2	0
489	523	2.1	20000
489	523	2.2	0
489	523	2.3	0
489	523	2.4	0
489	523	2.5	0
489	523	2.6	0
489	523	2.7	0
489	523	2.8	0
489	523	2.9	0
489	523	3	0
494	0	0	0
494	0	0	0
494	21	2	1
494	25	2.00000576	0
494	161	2.00042976	1
494	167	2.00043856	0
494	304	2.00600384	1
494	306	2.00601264	0
494	523	3	1
494	529	3.0000088	0
495	25	0.1	0
495	25	0.2	0
495	25	0.3	0
495	25	0.4	0
495	25	0.5	0
495	25	0.6	0
495	25	0.7	0
495	25	0.8	0
495	25	0.9	0
495	25	1	0
495	25	1.1	0
495	25	1.2	0
495	25	1.3	0
495	25	1.4	0
495	25	1.5	0
495	25	1.6	0
495	25	1.7	0
495	25	1.8	0
495	25	1.9	0
495	25	2	0
495	529	2.1	23360
495	529	2.2	0
495	529	2.3	0
495	529	2.4	0
495	529	2.5	0
495	529	2.6	0
495	529	2.7	0
495	529	2.8	0
495	529	2.9	0
495	529	3	0
496	21	0.1	0
496	21	0.2	0
496	21	0.3	0
496	21	0.4	0
496	21	0.5	0
496	21	0.6	0
496	21	0.7	0
496	21	0.8	0
496	21	0.9	0
496	21	1	0
496	21	1.1	0
496	21	1.2	0
496	21	1.3	0
496	21	1.4	0
496	21	1.5	0
496	21	1.6	0
496	21	1.7	0
496	21	1.8	0
496	21	1.9	0
496	21	2	0
496	523	2.1	0.02336
496	523	2.2	0
496	523	2.3	0
496	523	2.4	0
496	523	2.5	0
496	523	2.6	0
496	523	2.7	0
496	523	2.8	0
496	523	2.9	0
496	523	3	0
497	25	2.00000576	64
497	167	2.00043856	102
497	306	2.00601264	102
497	529	3.0000088	102
498	78	2.00021152	64
498	153	2.00042976	64
498	290	2.00600384	102
498	421	2.01151184	102
499	78	2.00021152	64
499	153	2.00042976	64
499	290	2.00600384	102
499	421	2.01151184	102
502	21	2	46
502	161	2.00042976	102
502	304	2.00600384	102
502	523	3	102
515	13	2	28
520	0	0	0
521	0	0	0
522	0	0	0
523	428	2.01151184	0.01151184
526	5	2	0
526	505	3	1
527	428	2.01151184	0
531	0	0	0
534	613	3.00033984	46
534	614	3.00033984	46
534	637	3.00055136	46
534	651	3.00076288	46
535	611	3.00033984	46
535	635	3.00055136	46
535	649	3.00076288	46
537	0	0	0
537	0	0	0
537	0	0	0
537	0	0	0
537	0	0	0
537	638	3.00055136	0
538	0	0	0
538	0	0	0
538	0	0	0
538	0	0	0
538	0	0	0
538	638	3.00055136	0
539	638	3.00055136	0
540	638	3.00055136	512
541	638	0.1	0
541	638	0.2	0
541	638	0.3	0
541	638	0.4	0
541	638	0.5	0
541	638	0.6	0
541	638	0.7	0
541	638	0.8	0
541	638	0.9	0
541	638	1	0
541	638	1.1	0
541	638	1.2	0
541	638	1.3	0
541	638	1.4	0
541	638	1.5	0
541	638	1.6	0
541	638	1.7	0
541	638	1.8	0
541	638	1.9	0
541	638	2	0
541	638	2.1	0
541	638	2.2	0
541	638	2.3	0
541	638	2.4	0
541	638	2.5	0
541	638	2.6	0
541	638	2.7	0
541	638	2.8	0
541	638	2.9	0
541	638	3	0
542	638	3.00055136	512
543	638	0.1	0
543	638	0.2	0
543	638	0.3	0
543	638	0.4	0
543	638	0.5	0
543	638	0.6	0
543	638	0.7	0
543	638	0.8	0
543	638	0.9	0
543	638	1	0
543	638	1.1	0
543	638	1.2	0
543	638	1.3	0
543	638	1.4	0
543	638	1.5	0
543	638	1.6	0
543	638	1.7	0
543	638	1.8	0
543	638	1.9	0
543	638	2	0
543	638	2.1	0
543	638	2.2	0
543	638	2.3	0
543	638	2.4	0
543	638	2.5	0
543	638	2.6	0
543	638	2.7	0
543	638	2.8	0
543	638	2.9	0
543	638	3	0
548	0	0	0
548	0	0	0
548	638	3.00055136	1
548	639	3.00055712	0
549	639	0.1	0
549	639	0.2	0
549	639	0.3	0
549	639	0.4	0
549	639	0.5	0
549	639	0.6	0
549	639	0.7	0
549	639	0.8	0
549	639	0.9	0
549	639	1	0
549	639	1.1	0
549	639	1.2	0
549	639	1.3	0
549	639	1.4	0
549	639	1.5	0
549	639	1.6	0
549	639	1.7	0
549	639	1.8	0
549	639	1.9	0
549	639	2	0
549	639	2.1	0
549	639	2.2	0
549	639	2.3	0
549	639	2.4	0
549	639	2.5	0
549	639	2.6	0
549	639	2.7	0
549	639	2.8	0
549	639	2.9	0
549	639	3	0
550	638	0.1	0
550	638	0.2	0
550	638	0.3	0
550	638	0.4	0
550	638	0.5	0
550	638	0.6	0
550	638	0.7	0
550	638	0.8	0
550	638	0.9	0
550	638	1	0
550	638	1.1	0
550	638	1.2	0
550	638	1.3	0
550	638	1.4	0
550	638	1.5	0
550	638	1.6	0
550	638	1.7	0
550	638	1.8	0
550	638	1.9	0
550	638	2	0
550	638	2.1	0
550	638	2.2	0
550	638	2.3	0
550	638	2.4	0
550	638	2.5	0
550	638	2.6	0
550	638	2.7	0
550	638	2.8	0
550	638	2.9	0
550	638	3	0
551	639	3.00055712	64
552	610	3.00033984	64
552	648	3.00076288	64
553	610	3.00033984	64
553	648	3.00076288	64
556	638	3.00055136	64
562	0	0	0
562	0	0	0
562	0	0	0
562	0	0	0
562	0	0	0
562	615	3.00033984	0
563	0	0	0
563	0	0	0
563	0	0	0
563	0	0	0
563	0	0	0
563	615	3.00033984	0
564	615	3.00033984	0
565	615	3.00033984	512
566	615	0.1	0
566	615	0.2	0
566	615	0.3	0
566	615	0.4	0
566	615	0.5	0
566	615	0.6	0
566	615	0.7	0
566	615	0.8	0
566	615	0.9	0
566	615	1	0
566	615	1.1	0
566	615	1.2	0
566	615	1.3	0
566	615	1.4	0
566	615	1.5	0
566	615	1.6	0
566	615	1.7	0
566	615	1.8	0
566	615	1.9	0
566	615	2	0
566	615	2.1	0
566	615	2.2	0
566	615	2.3	0
566	615	2.4	0
566	615	2.5	0
566	615	2.6	0
566	615	2.7	0
566	615	2.8	0
566	615	2.9	0
566	615	3	0
567	615	3.00033984	512
568	615	0.1	0
568	615	0.2	0
568	615	0.3	0
568	615	0.4	0
568	615	0.5	0
568	615	0.6	0
568	615	0.7	0
568	615	0.8	0
568	615	0.9	0
568	615	1	0
568	615	1.1	0
568	615	1.2	0
568	615	1.3	0
568	615	1.4	0
568	615	1.5	0
568	615	1.6	0
568	615	1.7	0
568	615	1.8	0
568	615	1.9	0
568	615	2	0
568	615	2.1	0
568	615	2.2	0
568	615	2.3	0
568	615	2.4	0
568	615	2.5	0
568	615	2.6	0
568	615	2.7	0
568	615	2.8	0
568	615	2.9	0
568	615	3	0
573	0	0	0
573	0	0	0
573	615	3.00033984	1
573	617	3.0003456	0
574	617	0.1	0
574	617	0.2	0
574	617	0.3	0
574	617	0.4	0
574	617	0.5	0
574	617	0.6	0
574	617	0.7	0
574	617	0.8	0
574	617	0.9	0
574	617	1	0
574	617	1.1	0
574	617	1.2	0
574	617	1.3	0
574	617	1.4	0
574	617	1.5	0
574	617	1.6	0
574	617	1.7	0
574	617	1.8	0
574	617	1.9	0
574	617	2	0
574	617	2.1	0
574	617	2.2	0
574	617	2.3	0
574	617	2.4	0
574	617	2.5	0
574	617	2.6	0
574	617	2.7	0
574	617	2.8	0
574	617	2.9	0
574	617	3	0
575	615	0.1	0
575	615	0.2	0
575	615	0.3	0
575	615	0.4	0
575	615	0.5	0
575	615	0.6	0
575	615	0.7	0
575	615	0.8	0
575	615	0.9	0
575	615	1	0
575	615	1.1	0
575	615	1.2	0
575	615	1.3	0
575	615	1.4	0
575	615	1.5	0
575	615	1.6	0
575	615	1.7	0
575	615	1.8	0
575	615	1.9	0
575	615	2	0
575	615	2.1	0
575	615	2.2	0
575	615	2.3	0
575	615	2.4	0
575	615	2.5	0
575	615	2.6	0
575	615	2.7	0
575	615	2.8	0
575	615	2.9	0
575	615	3	0
576	617	3.0003456	64
581	615	3.00033984	64
587	0	0	0
587	0	0	0
587	0	0	0
587	0	0	0
587	0	0	0
587	616	3.00033984	0
587	652	3.00076288	0
588	0	0	0
588	0	0	0
588	0	0	0
588	0	0	0
588	0	0	0
588	616	3.00033984	0
588	652	3.00076288	0
589	616	3.00033984	0
589	652	3.00076288	0
590	616	3.00033984	512
590	652	3.00076288	512
591	616	0.1	0
591	616	0.2	0
591	616	0.3	0
591	616	0.4	0
591	616	0.5	0
591	616	0.6	0
591	616	0.7	0
591	616	0.8	0
591	616	0.9	0
591	616	1	0
591	616	1.1	0
591	616	1.2	0
591	616	1.3	0
591	616	1.4	0
591	616	1.5	0
591	616	1.6	0
591	616	1.7	0
591	616	1.8	0
591	616	1.9	0
591	616	2	0
591	616	2.1	0
591	616	2.2	0
591	616	2.3	0
591	616	2.4	0
591	616	2.5	0
591	616	2.6	0
591	616	2.7	0
591	616	2.8	0
591	616	2.9	0
591	616	3	0
592	616	3.00033984	512
592	652	3.00076288	512
593	616	0.1	0
593	616	0.2	0
593	616	0.3	0
593	616	0.4	0
593	616	0.5	0
593	616	0.6	0
593	616	0.7	0
593	616	0.8	0
593	616	0.9	0
593	616	1	0
593	616	1.1	0
593	616	1.2	0
593	616	1.3	0
593	616	1.4	0
593	616	1.5	0
593	616	1.6	0
593	616	1.7	0
593	616	1.8	0
593	616	1.9	0
593	616	2	0
593	616	2.1	0
593	616	2.2	0
593	616	2.3	0
593	616	2.4	0
593	616	2.5	0
593	616	2.6	0
593	616	2.7	0
593	616	2.8	0
593	616	2.9	0
593	616	3	0
598	0	0	0
598	0	0	0
598	616	3.00033984	1
598	618	3.0003456	0
598	652	3.00076288	1
598	653	3.00076864	0
599	618	0.1	0
599	618	0.2	0
599	618	0.3	0
599	618	0.4	0
599	618	0.5	0
599	618	0.6	0
599	618	0.7	0
599	618	0.8	0
599	618	0.9	0
599	618	1	0
599	618	1.1	0
599	618	1.2	0
599	618	1.3	0
599	618	1.4	0
599	618	1.5	0
599	618	1.6	0
599	618	1.7	0
599	618	1.8	0
599	618	1.9	0
599	618	2	0
599	618	2.1	0
599	618	2.2	0
599	618	2.3	0
599	618	2.4	0
599	618	2.5	0
599	618	2.6	0
599	618	2.7	0
599	618	2.8	0
599	618	2.9	0
599	618	3	0
600	616	0.1	0
600	616	0.2	0
600	616	0.3	0
600	616	0.4	0
600	616	0.5	0
600	616	0.6	0
600	616	0.7	0
600	616	0.8	0
600	616	0.9	0
600	616	1	0
600	616	1.1	0
600	616	1.2	0
600	616	1.3	0
600	616	1.4	0
600	616	1.5	0
600	616	1.6	0
600	616	1.7	0
600	616	1.8	0
600	616	1.9	0
600	616	2	0
600	616	2.1	0
600	616	2.2	0
600	616	2.3	0
600	616	2.4	0
600	616	2.5	0
600	616	2.6	0
600	616	2.7	0
600	616	2.8	0
600	616	2.9	0
600	616	3	0
601	618	3.0003456	64
601	653	3.00076864	64
602	634	3.00055136	64
603	634	3.00055136	64
606	616	3.00033984	64
606	652	3.00076288	64
613	626	3.0004456	46
619	0	0	0
619	0	0	0
619	0	0	0
619	0	0	0
619	0	0	0
620	0	0	0
620	0	0	0
620	0	0	0
620	0	0	0
620	0	0	0
630	0	0	0
630	0	0	0
634	624	3.0004456	64
635	624	3.0004456	64
656	0	0	0
657	0	0	0
658	0	0	0
659	630	3.0004456	28
660	627	3.0004456	46
666	0	0	0
666	0	0	0
666	0	0	0
666	0	0	0
666	0	0	0
666	631	3.0004456	0
667	0	0	0
667	0	0	0
667	0	0	0
667	0	0	0
667	0	0	0
667	631	3.0004456	0
668	631	3.0004456	0
669	631	3.0004456	368
670	631	0.1	0
670	631	0.2	0
670	631	0.3	0
670	631	0.4	0
670	631	0.5	0
670	631	0.6	0
670	631	0.7	0
670	631	0.8	0
670	631	0.9	0
670	631	1	0
670	631	1.1	0
670	631	1.2	0
670	631	1.3	0
670	631	1.4	0
670	631	1.5	0
670	631	1.6	0
670	631	1.7	0
670	631	1.8	0
670	631	1.9	0
670	631	2	0
670	631	2.1	0
670	631	2.2	0
670	631	2.3	0
670	631	2.4	0
670	631	2.5	0
670	631	2.6	0
670	631	2.7	0
670	631	2.8	0
670	631	2.9	0
670	631	3	0
671	631	3.0004456	368
672	631	0.1	0
672	631	0.2	0
672	631	0.3	0
672	631	0.4	0
672	631	0.5	0
672	631	0.6	0
672	631	0.7	0
672	631	0.8	0
672	631	0.9	0
672	631	1	0
672	631	1.1	0
672	631	1.2	0
672	631	1.3	0
672	631	1.4	0
672	631	1.5	0
672	631	1.6	0
672	631	1.7	0
672	631	1.8	0
672	631	1.9	0
672	631	2	0
672	631	2.1	0
672	631	2.2	0
672	631	2.3	0
672	631	2.4	0
672	631	2.5	0
672	631	2.6	0
672	631	2.7	0
672	631	2.8	0
672	631	2.9	0
672	631	3	0
677	0	0	0
677	0	0	0
677	631	3.0004456	1
677	632	3.00045136	0
678	632	0.1	0
678	632	0.2	0
678	632	0.3	0
678	632	0.4	0
678	632	0.5	0
678	632	0.6	0
678	632	0.7	0
678	632	0.8	0
678	632	0.9	0
678	632	1	0
678	632	1.1	0
678	632	1.2	0
678	632	1.3	0
678	632	1.4	0
678	632	1.5	0
678	632	1.6	0
678	632	1.7	0
678	632	1.8	0
678	632	1.9	0
678	632	2	0
678	632	2.1	0
678	632	2.2	0
678	632	2.3	0
678	632	2.4	0
678	632	2.5	0
678	632	2.6	0
678	632	2.7	0
678	632	2.8	0
678	632	2.9	0
678	632	3	0
679	631	0.1	0
679	631	0.2	0
679	631	0.3	0
679	631	0.4	0
679	631	0.5	0
679	631	0.6	0
679	631	0.7	0
679	631	0.8	0
679	631	0.9	0
679	631	1	0
679	631	1.1	0
679	631	1.2	0
679	631	1.3	0
679	631	1.4	0
679	631	1.5	0
679	631	1.6	0
679	631	1.7	0
679	631	1.8	0
679	631	1.9	0
679	631	2	0
679	631	2.1	0
679	631	2.2	0
679	631	2.3	0
679	631	2.4	0
679	631	2.5	0
679	631	2.6	0
679	631	2.7	0
679	631	2.8	0
679	631	2.9	0
679	631	3	0
680	632	3.00045136	64
681	625	3.0004456	64
682	625	3.0004456	64
685	631	3.0004456	46
699	629	3.0004456	28
703	0	0	0
704	0	0	0
705	0	0	0
709	1	0	2
738	507	3	3
740	507	3	7504
741	507	3	7504
743	507	3	0
754	507	3	0
767	508	3	3
769	508	3	7504
770	508	3	7504
772	508	3	0
783	508	3	0
